data_C_acs_defect_4_opt
_audit_creation_date              2023-10-19
_audit_creation_method            'Materials Studio'
_symmetry_space_group_name_H-M    'P1'
_symmetry_Int_Tables_number       1
_symmetry_cell_setting            triclinic
loop_
_symmetry_equiv_pos_as_xyz
  x,y,z
_cell_length_a                    30.6410
_cell_length_b                    34.1774
_cell_length_c                    36.8182
_cell_angle_alpha                 90.0156
_cell_angle_beta                  89.8911
_cell_angle_gamma                 116.7070
loop_
_atom_site_label
_atom_site_type_symbol
_atom_site_fract_x
_atom_site_fract_y
_atom_site_fract_z
_atom_site_U_iso_or_equiv
_atom_site_adp_type
_atom_site_occupancy
C1     C     0.27265   0.03893   0.25377   0.00000  Uiso   1.00
C2     C     0.32200   0.06527   0.24770   0.00000  Uiso   1.00
C3     C     0.34430   0.10806   0.26049   0.00000  Uiso   1.00
C4     C     0.31740   0.12523   0.27928   0.00000  Uiso   1.00
C5     C     0.26792   0.09816   0.28590   0.00000  Uiso   1.00
C6     C     0.24567   0.05551   0.27309   0.00000  Uiso   1.00
H1     H     0.34356   0.05251   0.23302   0.00000  Uiso   1.00
H2     H     0.38303   0.12780   0.25573   0.00000  Uiso   1.00
H3     H     0.24669   0.11057   0.30144   0.00000  Uiso   1.00
H4     H     0.20718   0.03506   0.27837   0.00000  Uiso   1.00
C7     C     0.28183   0.18568   0.25431   0.00000  Uiso   1.00
C8     C     0.31601   0.19900   0.28222   0.00000  Uiso   1.00
C9     C     0.33157   0.24105   0.29646   0.00000  Uiso   1.00
C10    C     0.31250   0.26836   0.28399   0.00000  Uiso   1.00
C11    C     0.27766   0.25472   0.25632   0.00000  Uiso   1.00
C12    C     0.26280   0.21302   0.24168   0.00000  Uiso   1.00
C13    C     0.34033   0.17125   0.29562   0.00000  Uiso   1.00
C14    C     0.39380   0.19806   0.28446   0.00000  Uiso   1.00
C15    C     0.43194   0.21687   0.30919   0.00000  Uiso   1.00
C16    C     0.47944   0.24262   0.29749   0.00000  Uiso   1.00
C17    C     0.49030   0.25088   0.26063   0.00000  Uiso   1.00
C18    C     0.45175   0.23275   0.23587   0.00000  Uiso   1.00
C19    C     0.40449   0.20697   0.24759   0.00000  Uiso   1.00
C20    C     0.30619   0.17566   0.35847   0.00000  Uiso   1.00
C21    C     0.30347   0.16841   0.39573   0.00000  Uiso   1.00
C22    C     0.32874   0.14809   0.41201   0.00000  Uiso   1.00
C23    C     0.35449   0.13266   0.38953   0.00000  Uiso   1.00
C24    C     0.35735   0.14001   0.35250   0.00000  Uiso   1.00
C25    C     0.33469   0.16319   0.33653   0.00000  Uiso   1.00
C26    C     0.33145   0.14294   0.45310   0.00000  Uiso   1.00
C27    C     0.29933   0.00723   0.46971   0.00000  Uiso   1.00
C28    C     0.33981   0.03996   0.48637   0.00000  Uiso   1.00
C29    C     0.35076   0.08371   0.48149   0.00000  Uiso   1.00
C30    C     0.32130   0.09542   0.45989   0.00000  Uiso   1.00
C31    C     0.28081   0.06217   0.44297   0.00000  Uiso   1.00
C32    C     0.26985   0.01853   0.44788   0.00000  Uiso   1.00
C33    C     0.29472   0.15409   0.47325   0.00000  Uiso   1.00
C34    C     0.30372   0.19794   0.47490   0.00000  Uiso   1.00
C35    C     0.27188   0.21003   0.49287   0.00000  Uiso   1.00
C36    C     0.23044   0.17851   0.50977   0.00000  Uiso   1.00
C37    C     0.22141   0.13499   0.50859   0.00000  Uiso   1.00
C38    C     0.25329   0.12286   0.49053   0.00000  Uiso   1.00
C39    C     0.38999   0.18143   0.50419   0.00000  Uiso   1.00
C40    C     0.43509   0.21036   0.51791   0.00000  Uiso   1.00
C41    C     0.47401   0.23448   0.49461   0.00000  Uiso   1.00
C42    C     0.46608   0.22868   0.45730   0.00000  Uiso   1.00
C43    C     0.42096   0.19961   0.44367   0.00000  Uiso   1.00
C44    C     0.38219   0.17523   0.46679   0.00000  Uiso   1.00
H5     H     0.26968   0.15373   0.24193   0.00000  Uiso   1.00
H6     H     0.35942   0.25277   0.31738   0.00000  Uiso   1.00
H7     H     0.32558   0.30096   0.29536   0.00000  Uiso   1.00
H8     H     0.23562   0.20140   0.22030   0.00000  Uiso   1.00
H9     H     0.42513   0.21177   0.33811   0.00000  Uiso   1.00
H10    H     0.50836   0.25606   0.31751   0.00000  Uiso   1.00
H11    H     0.45856   0.23954   0.20709   0.00000  Uiso   1.00
H12    H     0.37524   0.19385   0.22778   0.00000  Uiso   1.00
H13    H     0.28585   0.19163   0.34693   0.00000  Uiso   1.00
H14    H     0.28130   0.17924   0.41181   0.00000  Uiso   1.00
H15    H     0.37298   0.11506   0.40124   0.00000  Uiso   1.00
H16    H     0.37786   0.12792   0.33578   0.00000  Uiso   1.00
H17    H     0.36330   0.03158   0.50329   0.00000  Uiso   1.00
H18    H     0.38287   0.10856   0.49462   0.00000  Uiso   1.00
H19    H     0.25781   0.07061   0.42552   0.00000  Uiso   1.00
H20    H     0.23822   0.99326   0.43452   0.00000  Uiso   1.00
H21    H     0.33627   0.22298   0.46221   0.00000  Uiso   1.00
H22    H     0.27956   0.24424   0.49376   0.00000  Uiso   1.00
H23    H     0.18935   0.11008   0.52189   0.00000  Uiso   1.00
H24    H     0.24541   0.08862   0.49033   0.00000  Uiso   1.00
H25    H     0.36019   0.16363   0.52289   0.00000  Uiso   1.00
H26    H     0.43982   0.21468   0.54706   0.00000  Uiso   1.00
H27    H     0.49564   0.24662   0.43846   0.00000  Uiso   1.00
H28    H     0.41667   0.19646   0.41447   0.00000  Uiso   1.00
C45    C     0.24276   0.48814   0.00981   0.00000  Uiso   1.00
C46    C     0.19694   0.46861   0.02659   0.00000  Uiso   1.00
C47    C     0.17630   0.42507   0.03693   0.00000  Uiso   1.00
C48    C     0.20028   0.39932   0.03044   0.00000  Uiso   1.00
C49    C     0.24660   0.41913   0.01486   0.00000  Uiso   1.00
C50    C     0.26741   0.46280   0.00451   0.00000  Uiso   1.00
H29    H     0.17754   0.48781   0.03215   0.00000  Uiso   1.00
H30    H     0.14102   0.41085   0.05041   0.00000  Uiso   1.00
H31    H     0.26706   0.40063   0.01052   0.00000  Uiso   1.00
H32    H     0.30310   0.47703   0.99168   0.00000  Uiso   1.00
C51    C     0.21103   0.32315   0.99390   0.00000  Uiso   1.00
C52    C     0.20259   0.32547   0.03094   0.00000  Uiso   1.00
C53    C     0.21414   0.29981   0.05469   0.00000  Uiso   1.00
C54    C     0.23479   0.27371   0.04205   0.00000  Uiso   1.00
C55    C     0.24420   0.27210   0.00514   0.00000  Uiso   1.00
C56    C     0.23191   0.29727   0.98121   0.00000  Uiso   1.00
C57    C     0.17638   0.35198   0.04367   0.00000  Uiso   1.00
C58    C     0.12461   0.32564   0.02903   0.00000  Uiso   1.00
C59    C     0.09634   0.28348   0.04256   0.00000  Uiso   1.00
C60    C     0.04971   0.25781   0.02964   0.00000  Uiso   1.00
C61    C     0.02990   0.27320   0.00224   0.00000  Uiso   1.00
C62    C     0.05880   0.31471   0.98788   0.00000  Uiso   1.00
C63    C     0.10551   0.34041   0.00093   0.00000  Uiso   1.00
C64    C     0.22256   0.37419   0.10265   0.00000  Uiso   1.00
C65    C     0.22522   0.37643   0.14015   0.00000  Uiso   1.00
C66    C     0.18277   0.36045   0.16122   0.00000  Uiso   1.00
C67    C     0.13826   0.34657   0.14353   0.00000  Uiso   1.00
C68    C     0.13562   0.34459   0.10589   0.00000  Uiso   1.00
C69    C     0.17742   0.35617   0.08501   0.00000  Uiso   1.00
C70    C     0.18694   0.36056   0.20258   0.00000  Uiso   1.00
C71    C     0.25584   0.49916   0.22642   0.00000  Uiso   1.00
C72    C     0.20896   0.47874   0.21215   0.00000  Uiso   1.00
C73    C     0.18719   0.43416   0.20509   0.00000  Uiso   1.00
C74    C     0.21157   0.40903   0.21264   0.00000  Uiso   1.00
C75    C     0.25898   0.43000   0.22610   0.00000  Uiso   1.00
C76    C     0.28082   0.47469   0.23311   0.00000  Uiso   1.00
C77    C     0.21508   0.33578   0.21533   0.00000  Uiso   1.00
C78    C     0.22618   0.30920   0.19226   0.00000  Uiso   1.00
C79    C     0.24711   0.28363   0.20553   0.00000  Uiso   1.00
C80    C     0.25716   0.28339   0.24243   0.00000  Uiso   1.00
C81    C     0.24604   0.31001   0.26564   0.00000  Uiso   1.00
C82    C     0.22500   0.33544   0.25231   0.00000  Uiso   1.00
C83    C     0.11630   0.35192   0.24543   0.00000  Uiso   1.00
C84    C     0.07020   0.32630   0.25977   0.00000  Uiso   1.00
C85    C     0.04345   0.28244   0.24986   0.00000  Uiso   1.00
C86    C     0.06514   0.26475   0.22571   0.00000  Uiso   1.00
C87    C     0.11070   0.29045   0.21108   0.00000  Uiso   1.00
C88    C     0.13670   0.33476   0.22008   0.00000  Uiso   1.00
H33    H     0.20066   0.34149   0.97464   0.00000  Uiso   1.00
H34    H     0.20700   0.29975   0.08353   0.00000  Uiso   1.00
H35    H     0.24404   0.25466   0.06134   0.00000  Uiso   1.00
H36    H     0.23773   0.29591   0.95227   0.00000  Uiso   1.00
H37    H     0.11110   0.27046   0.06345   0.00000  Uiso   1.00
H38    H     0.02879   0.22514   0.04059   0.00000  Uiso   1.00
H39    H     0.04459   0.32760   0.96652   0.00000  Uiso   1.00
H40    H     0.12689   0.37235   0.98887   0.00000  Uiso   1.00
H41    H     0.25600   0.38601   0.08686   0.00000  Uiso   1.00
H42    H     0.26068   0.39016   0.15322   0.00000  Uiso   1.00
H43    H     0.10471   0.33643   0.15887   0.00000  Uiso   1.00
H44    H     0.10015   0.33318   0.09317   0.00000  Uiso   1.00
H45    H     0.18933   0.49764   0.20627   0.00000  Uiso   1.00
H46    H     0.15096   0.41877   0.19323   0.00000  Uiso   1.00
H47    H     0.27954   0.41173   0.23107   0.00000  Uiso   1.00
H48    H     0.31774   0.49040   0.24373   0.00000  Uiso   1.00
H49    H     0.21819   0.30770   0.16350   0.00000  Uiso   1.00
H50    H     0.25576   0.26368   0.18673   0.00000  Uiso   1.00
H51    H     0.25264   0.30996   0.29456   0.00000  Uiso   1.00
H52    H     0.21532   0.35477   0.27108   0.00000  Uiso   1.00
H53    H     0.13595   0.38570   0.25414   0.00000  Uiso   1.00
H54    H     0.05479   0.34120   0.27856   0.00000  Uiso   1.00
H55    H     0.04646   0.23039   0.21842   0.00000  Uiso   1.00
H56    H     0.12644   0.27586   0.19225   0.00000  Uiso   1.00
C89    C     0.77814   0.04434   0.25740   0.00000  Uiso   1.00
C90    C     0.82557   0.06334   0.27143   0.00000  Uiso   1.00
C91    C     0.84647   0.10565   0.28482   0.00000  Uiso   1.00
C92    C     0.82088   0.13064   0.28466   0.00000  Uiso   1.00
C93    C     0.77289   0.11117   0.27218   0.00000  Uiso   1.00
C94    C     0.75206   0.06893   0.25840   0.00000  Uiso   1.00
H57    H     0.84634   0.04472   0.27236   0.00000  Uiso   1.00
H58    H     0.88332   0.11942   0.29554   0.00000  Uiso   1.00
H59    H     0.75129   0.12904   0.27288   0.00000  Uiso   1.00
H60    H     0.71510   0.05530   0.24792   0.00000  Uiso   1.00
C95    C     0.81141   0.20556   0.25001   0.00000  Uiso   1.00
C96    C     0.82189   0.20557   0.28688   0.00000  Uiso   1.00
C97    C     0.81527   0.23541   0.30918   0.00000  Uiso   1.00
C98    C     0.79509   0.26152   0.29580   0.00000  Uiso   1.00
C99    C     0.78241   0.26019   0.25921   0.00000  Uiso   1.00
C100   C     0.79230   0.23234   0.23644   0.00000  Uiso   1.00
C101   C     0.84466   0.17671   0.30069   0.00000  Uiso   1.00
C102   C     0.89782   0.20265   0.28872   0.00000  Uiso   1.00
C103   C     0.93083   0.23752   0.30944   0.00000  Uiso   1.00
C104   C     0.97811   0.26303   0.29736   0.00000  Uiso   1.00
C105   C     0.99367   0.25533   0.26360   0.00000  Uiso   1.00
C106   C     0.95996   0.22124   0.24242   0.00000  Uiso   1.00
C107   C     0.91300   0.19536   0.25478   0.00000  Uiso   1.00
C108   C     0.79586   0.16273   0.35896   0.00000  Uiso   1.00
C109   C     0.79197   0.15974   0.39643   0.00000  Uiso   1.00
C110   C     0.83062   0.16192   0.41767   0.00000  Uiso   1.00
C111   C     0.87083   0.16193   0.39998   0.00000  Uiso   1.00
C112   C     0.87520   0.16595   0.36248   0.00000  Uiso   1.00
C113   C     0.83906   0.16914   0.34162   0.00000  Uiso   1.00
C114   C     0.82702   0.16212   0.45900   0.00000  Uiso   1.00
C115   C     0.75484   0.02461   0.48953   0.00000  Uiso   1.00
C116   C     0.80572   0.04819   0.49008   0.00000  Uiso   1.00
C117   C     0.82890   0.09184   0.47983   0.00000  Uiso   1.00
C118   C     0.80206   0.11386   0.46962   0.00000  Uiso   1.00
C119   C     0.75145   0.08976   0.46703   0.00000  Uiso   1.00
C120   C     0.72826   0.04600   0.47678   0.00000  Uiso   1.00
C121   C     0.79909   0.18731   0.47137   0.00000  Uiso   1.00
C122   C     0.80762   0.22631   0.45387   0.00000  Uiso   1.00
C123   C     0.78614   0.25185   0.46606   0.00000  Uiso   1.00
C124   C     0.75549   0.23943   0.49645   0.00000  Uiso   1.00
C125   C     0.74759   0.20074   0.51426   0.00000  Uiso   1.00
C126   C     0.76944   0.17535   0.50214   0.00000  Uiso   1.00
C127   C     0.88132   0.17941   0.51437   0.00000  Uiso   1.00
C128   C     0.92426   0.20439   0.53298   0.00000  Uiso   1.00
C129   C     0.96257   0.23895   0.51576   0.00000  Uiso   1.00
C130   C     0.95715   0.24868   0.47999   0.00000  Uiso   1.00
C131   C     0.91416   0.22367   0.46138   0.00000  Uiso   1.00
C132   C     0.87611   0.18796   0.47800   0.00000  Uiso   1.00
H61    H     0.81836   0.18438   0.23142   0.00000  Uiso   1.00
H62    H     0.82544   0.23840   0.33759   0.00000  Uiso   1.00
H63    H     0.78886   0.28291   0.31461   0.00000  Uiso   1.00
H64    H     0.78538   0.23150   0.20752   0.00000  Uiso   1.00
H65    H     0.91965   0.24504   0.33542   0.00000  Uiso   1.00
H66    H     0.00312   0.28915   0.31464   0.00000  Uiso   1.00
H67    H     0.97005   0.21512   0.21555   0.00000  Uiso   1.00
H68    H     0.88790   0.16936   0.23746   0.00000  Uiso   1.00
H69    H     0.76520   0.16109   0.34323   0.00000  Uiso   1.00
H70    H     0.75864   0.15662   0.40918   0.00000  Uiso   1.00
H71    H     0.89976   0.15980   0.41545   0.00000  Uiso   1.00
H72    H     0.90775   0.16735   0.34966   0.00000  Uiso   1.00
H73    H     0.82780   0.03269   0.49926   0.00000  Uiso   1.00
H74    H     0.86848   0.10896   0.48038   0.00000  Uiso   1.00
H75    H     0.72959   0.10531   0.45747   0.00000  Uiso   1.00
H76    H     0.68887   0.02832   0.47424   0.00000  Uiso   1.00
H77    H     0.83169   0.23718   0.43047   0.00000  Uiso   1.00
H78    H     0.79418   0.28230   0.45213   0.00000  Uiso   1.00
H79    H     0.72386   0.18996   0.53785   0.00000  Uiso   1.00
H80    H     0.76311   0.14592   0.51706   0.00000  Uiso   1.00
H81    H     0.85147   0.15310   0.52852   0.00000  Uiso   1.00
H82    H     0.92762   0.19695   0.56116   0.00000  Uiso   1.00
H83    H     0.98642   0.27612   0.46641   0.00000  Uiso   1.00
H84    H     0.91053   0.23253   0.43368   0.00000  Uiso   1.00
C133   C     0.74237   0.48647   0.00436   0.00000  Uiso   1.00
C134   C     0.69575   0.46712   0.01994   0.00000  Uiso   1.00
C135   C     0.67571   0.42459   0.03282   0.00000  Uiso   1.00
C136   C     0.70133   0.39968   0.03059   0.00000  Uiso   1.00
C137   C     0.74869   0.41959   0.01676   0.00000  Uiso   1.00
C138   C     0.76867   0.46208   0.00349   0.00000  Uiso   1.00
H85    H     0.67496   0.48561   0.02245   0.00000  Uiso   1.00
H86    H     0.63949   0.41058   0.04480   0.00000  Uiso   1.00
H87    H     0.77050   0.40192   0.01596   0.00000  Uiso   1.00
H88    H     0.80511   0.47604   0.99189   0.00000  Uiso   1.00
C139   C     0.71277   0.32519   0.99533   0.00000  Uiso   1.00
C140   C     0.70204   0.32522   0.03219   0.00000  Uiso   1.00
C141   C     0.70916   0.29590   0.05479   0.00000  Uiso   1.00
C142   C     0.72942   0.26975   0.04159   0.00000  Uiso   1.00
C143   C     0.74208   0.27098   0.00501   0.00000  Uiso   1.00
C144   C     0.73257   0.29876   0.98199   0.00000  Uiso   1.00
C145   C     0.67797   0.35317   0.04574   0.00000  Uiso   1.00
C146   C     0.62520   0.32657   0.03310   0.00000  Uiso   1.00
C147   C     0.59455   0.28840   0.05167   0.00000  Uiso   1.00
C148   C     0.54766   0.26202   0.03951   0.00000  Uiso   1.00
C149   C     0.52995   0.27265   0.00800   0.00000  Uiso   1.00
C150   C     0.56099   0.31041   0.98911   0.00000  Uiso   1.00
C151   C     0.60794   0.33672   0.00129   0.00000  Uiso   1.00
C152   C     0.72427   0.36720   0.10524   0.00000  Uiso   1.00
C153   C     0.72593   0.36855   0.14286   0.00000  Uiso   1.00
C154   C     0.68524   0.36344   0.16310   0.00000  Uiso   1.00
C155   C     0.64505   0.36211   0.14450   0.00000  Uiso   1.00
C156   C     0.64288   0.35950   0.10693   0.00000  Uiso   1.00
C157   C     0.68139   0.35939   0.08686   0.00000  Uiso   1.00
C158   C     0.68548   0.36107   0.20453   0.00000  Uiso   1.00
C159   C     0.75283   0.49716   0.23922   0.00000  Uiso   1.00
C160   C     0.70211   0.47362   0.23633   0.00000  Uiso   1.00
C161   C     0.68031   0.43038   0.22481   0.00000  Uiso   1.00
C162   C     0.70835   0.40877   0.21672   0.00000  Uiso   1.00
C163   C     0.75909   0.43306   0.21739   0.00000  Uiso   1.00
C164   C     0.78094   0.47634   0.22846   0.00000  Uiso   1.00
C165   C     0.71371   0.33669   0.21803   0.00000  Uiso   1.00
C166   C     0.71051   0.29993   0.19947   0.00000  Uiso   1.00
C167   C     0.73256   0.27536   0.21279   0.00000  Uiso   1.00
C168   C     0.75929   0.28672   0.24513   0.00000  Uiso   1.00
C169   C     0.76192   0.32333   0.26382   0.00000  Uiso   1.00
C170   C     0.73888   0.34731   0.25088   0.00000  Uiso   1.00
C171   C     0.62027   0.34019   0.25416   0.00000  Uiso   1.00
C172   C     0.57394   0.31370   0.26764   0.00000  Uiso   1.00
C173   C     0.54044   0.27824   0.24763   0.00000  Uiso   1.00
C174   C     0.55580   0.26924   0.21427   0.00000  Uiso   1.00
C175   C     0.60187   0.29591   0.20078   0.00000  Uiso   1.00
C176   C     0.63434   0.33286   0.21982   0.00000  Uiso   1.00
H89    H     0.70529   0.34593   0.97663   0.00000  Uiso   1.00
H90    H     0.69906   0.29316   0.08324   0.00000  Uiso   1.00
H91    H     0.73582   0.24844   0.06036   0.00000  Uiso   1.00
H92    H     0.74003   0.29939   0.95314   0.00000  Uiso   1.00
H93    H     0.60756   0.27894   0.07590   0.00000  Uiso   1.00
H94    H     0.52495   0.23234   0.05435   0.00000  Uiso   1.00
H95    H     0.54835   0.31978   0.96466   0.00000  Uiso   1.00
H96    H     0.63112   0.36549   0.98563   0.00000  Uiso   1.00
H97    H     0.75644   0.37109   0.09021   0.00000  Uiso   1.00
H98    H     0.75910   0.37269   0.15642   0.00000  Uiso   1.00
H99    H     0.61426   0.36171   0.15934   0.00000  Uiso   1.00
H100   H     0.61017   0.35660   0.09340   0.00000  Uiso   1.00
H101   H     0.67899   0.48882   0.24375   0.00000  Uiso   1.00
H102   H     0.64085   0.41338   0.22255   0.00000  Uiso   1.00
H103   H     0.78211   0.41798   0.20938   0.00000  Uiso   1.00
H104   H     0.82048   0.49415   0.22849   0.00000  Uiso   1.00
H105   H     0.69018   0.28989   0.17428   0.00000  Uiso   1.00
H106   H     0.72805   0.24651   0.19777   0.00000  Uiso   1.00
H107   H     0.78226   0.33371   0.28897   0.00000  Uiso   1.00
H108   H     0.74085   0.37478   0.26676   0.00000  Uiso   1.00
H109   H     0.64547   0.36704   0.27073   0.00000  Uiso   1.00
H110   H     0.56369   0.32130   0.29395   0.00000  Uiso   1.00
H111   H     0.53170   0.24078   0.19871   0.00000  Uiso   1.00
H112   H     0.61238   0.28764   0.17486   0.00000  Uiso   1.00
C177   C     0.77657   0.54229   0.25334   0.00000  Uiso   1.00
C178   C     0.82054   0.55725   0.27247   0.00000  Uiso   1.00
C179   C     0.84373   0.59969   0.28544   0.00000  Uiso   1.00
C180   C     0.82408   0.62897   0.27978   0.00000  Uiso   1.00
C181   C     0.77925   0.61361   0.26217   0.00000  Uiso   1.00
C182   C     0.75615   0.57117   0.24882   0.00000  Uiso   1.00
H113   H     0.83661   0.53531   0.27780   0.00000  Uiso   1.00
H114   H     0.87767   0.61021   0.30031   0.00000  Uiso   1.00
H115   H     0.76181   0.63477   0.25849   0.00000  Uiso   1.00
H116   H     0.72195   0.56077   0.23436   0.00000  Uiso   1.00
C183   C     0.82678   0.70999   0.24377   0.00000  Uiso   1.00
C184   C     0.83272   0.70701   0.28107   0.00000  Uiso   1.00
C185   C     0.82589   0.73652   0.30366   0.00000  Uiso   1.00
C186   C     0.80930   0.76510   0.28996   0.00000  Uiso   1.00
C187   C     0.80015   0.76612   0.25292   0.00000  Uiso   1.00
C188   C     0.81056   0.73883   0.22993   0.00000  Uiso   1.00
C189   C     0.85044   0.67486   0.29593   0.00000  Uiso   1.00
C190   C     0.90489   0.69741   0.28664   0.00000  Uiso   1.00
C191   C     0.93623   0.73404   0.30654   0.00000  Uiso   1.00
C192   C     0.98525   0.75674   0.29742   0.00000  Uiso   1.00
C193   C     0.00368   0.74360   0.26789   0.00000  Uiso   1.00
C194   C     0.97255   0.70793   0.24738   0.00000  Uiso   1.00
C195   C     0.92346   0.68515   0.25654   0.00000  Uiso   1.00
C196   C     0.79517   0.66006   0.35040   0.00000  Uiso   1.00
C197   C     0.78666   0.65762   0.38746   0.00000  Uiso   1.00
C198   C     0.82308   0.66147   0.41187   0.00000  Uiso   1.00
C199   C     0.86592   0.66260   0.39793   0.00000  Uiso   1.00
C200   C     0.87482   0.66595   0.36081   0.00000  Uiso   1.00
C201   C     0.84069   0.66742   0.33667   0.00000  Uiso   1.00
C202   C     0.81479   0.66203   0.45267   0.00000  Uiso   1.00
C203   C     0.75528   0.52654   0.48751   0.00000  Uiso   1.00
C204   C     0.80513   0.55443   0.49072   0.00000  Uiso   1.00
C205   C     0.82442   0.59752   0.47905   0.00000  Uiso   1.00
C206   C     0.79443   0.61428   0.46436   0.00000  Uiso   1.00
C207   C     0.74529   0.58557   0.45871   0.00000  Uiso   1.00
C208   C     0.72591   0.54251   0.47033   0.00000  Uiso   1.00
C209   C     0.78096   0.68270   0.46166   0.00000  Uiso   1.00
C210   C     0.78866   0.72175   0.44460   0.00000  Uiso   1.00
C211   C     0.76323   0.74458   0.45518   0.00000  Uiso   1.00
C212   C     0.72881   0.72916   0.48327   0.00000  Uiso   1.00
C213   C     0.72052   0.68962   0.49978   0.00000  Uiso   1.00
C214   C     0.74666   0.66721   0.48959   0.00000  Uiso   1.00
C215   C     0.86244   0.68661   0.51117   0.00000  Uiso   1.00
C216   C     0.90202   0.71516   0.53149   0.00000  Uiso   1.00
C217   C     0.94035   0.75030   0.51485   0.00000  Uiso   1.00
C218   C     0.93829   0.75692   0.47786   0.00000  Uiso   1.00
C219   C     0.89866   0.72832   0.45752   0.00000  Uiso   1.00
C220   C     0.86074   0.69215   0.47373   0.00000  Uiso   1.00
H117   H     0.83470   0.68938   0.22518   0.00000  Uiso   1.00
H118   H     0.83276   0.73713   0.33256   0.00000  Uiso   1.00
H119   H     0.80242   0.78617   0.30871   0.00000  Uiso   1.00
H120   H     0.80619   0.74012   0.20081   0.00000  Uiso   1.00
H121   H     0.92220   0.74512   0.32931   0.00000  Uiso   1.00
H122   H     0.00909   0.78495   0.31336   0.00000  Uiso   1.00
H123   H     0.98638   0.69774   0.22396   0.00000  Uiso   1.00
H124   H     0.89969   0.65768   0.23989   0.00000  Uiso   1.00
H125   H     0.76639   0.65749   0.33201   0.00000  Uiso   1.00
H126   H     0.75154   0.65361   0.39733   0.00000  Uiso   1.00
H127   H     0.89338   0.66196   0.41612   0.00000  Uiso   1.00
H128   H     0.90926   0.66828   0.35096   0.00000  Uiso   1.00
H129   H     0.82913   0.54282   0.50328   0.00000  Uiso   1.00
H130   H     0.86328   0.61835   0.48207   0.00000  Uiso   1.00
H131   H     0.72161   0.59700   0.44539   0.00000  Uiso   1.00
H132   H     0.68749   0.52104   0.46585   0.00000  Uiso   1.00
H133   H     0.81573   0.73513   0.42317   0.00000  Uiso   1.00
H134   H     0.77146   0.77549   0.44200   0.00000  Uiso   1.00
H135   H     0.69354   0.67596   0.52122   0.00000  Uiso   1.00
H136   H     0.74024   0.63750   0.50407   0.00000  Uiso   1.00
H137   H     0.83240   0.65982   0.52474   0.00000  Uiso   1.00
H138   H     0.90273   0.71005   0.56051   0.00000  Uiso   1.00
H139   H     0.96757   0.78469   0.46464   0.00000  Uiso   1.00
H140   H     0.89759   0.73472   0.42879   0.00000  Uiso   1.00
C221   C     0.74322   0.98725   0.00665   0.00000  Uiso   1.00
C222   C     0.69927   0.97293   0.02577   0.00000  Uiso   1.00
C223   C     0.67624   0.93089   0.03972   0.00000  Uiso   1.00
C224   C     0.69579   0.90145   0.03452   0.00000  Uiso   1.00
C225   C     0.74080   0.91641   0.01709   0.00000  Uiso   1.00
C226   C     0.76406   0.95859   0.00320   0.00000  Uiso   1.00
H141   H     0.68316   0.99504   0.03015   0.00000  Uiso   1.00
H142   H     0.64241   0.92076   0.05476   0.00000  Uiso   1.00
H143   H     0.75812   0.89508   0.01388   0.00000  Uiso   1.00
H144   H     0.79846   0.96890   0.98891   0.00000  Uiso   1.00
C227   C     0.69176   0.82074   0.99735   0.00000  Uiso   1.00
C228   C     0.68728   0.82377   0.03487   0.00000  Uiso   1.00
C229   C     0.69602   0.79491   0.05687   0.00000  Uiso   1.00
C230   C     0.71250   0.76662   0.04223   0.00000  Uiso   1.00
C231   C     0.71960   0.76521   0.00487   0.00000  Uiso   1.00
C232   C     0.70775   0.79218   0.98260   0.00000  Uiso   1.00
C233   C     0.66874   0.85528   0.05006   0.00000  Uiso   1.00
C234   C     0.61479   0.83273   0.03950   0.00000  Uiso   1.00
C235   C     0.58387   0.79335   0.05643   0.00000  Uiso   1.00
C236   C     0.53611   0.76927   0.04508   0.00000  Uiso   1.00
C237   C     0.51741   0.78368   0.01624   0.00000  Uiso   1.00
C238   C     0.54824   0.82335   0.99968   0.00000  Uiso   1.00
C239   C     0.59624   0.84715   0.01080   0.00000  Uiso   1.00
C240   C     0.72124   0.86945   0.10592   0.00000  Uiso   1.00
C241   C     0.72763   0.87083   0.14319   0.00000  Uiso   1.00
C242   C     0.68952   0.86527   0.16666   0.00000  Uiso   1.00
C243   C     0.64686   0.86319   0.15166   0.00000  Uiso   1.00
C244   C     0.64000   0.86067   0.11431   0.00000  Uiso   1.00
C245   C     0.67613   0.86130   0.09103   0.00000  Uiso   1.00
C246   C     0.69608   0.86385   0.20761   0.00000  Uiso   1.00
C247   C     0.75656   0.99940   0.24290   0.00000  Uiso   1.00
C248   C     0.70647   0.97190   0.24537   0.00000  Uiso   1.00
C249   C     0.68691   0.92886   0.23357   0.00000  Uiso   1.00
C250   C     0.71683   0.91147   0.21974   0.00000  Uiso   1.00
C251   C     0.76638   0.93961   0.21515   0.00000  Uiso   1.00
C252   C     0.78593   0.98274   0.22656   0.00000  Uiso   1.00
C253   C     0.72884   0.84225   0.21703   0.00000  Uiso   1.00
C254   C     0.72218   0.80414   0.19884   0.00000  Uiso   1.00
C255   C     0.74635   0.78034   0.20972   0.00000  Uiso   1.00
C256   C     0.77816   0.79375   0.23936   0.00000  Uiso   1.00
C257   C     0.78549   0.83237   0.25708   0.00000  Uiso   1.00
C258   C     0.76081   0.85588   0.24640   0.00000  Uiso   1.00
C259   C     0.64564   0.83937   0.26511   0.00000  Uiso   1.00
C260   C     0.60512   0.81078   0.28469   0.00000  Uiso   1.00
C261   C     0.56769   0.77555   0.26751   0.00000  Uiso   1.00
C262   C     0.57161   0.76885   0.23074   0.00000  Uiso   1.00
C263   C     0.61218   0.79749   0.21115   0.00000  Uiso   1.00
C264   C     0.64919   0.83380   0.22785   0.00000  Uiso   1.00
H145   H     0.68269   0.84109   0.97931   0.00000  Uiso   1.00
H146   H     0.69060   0.79441   0.08599   0.00000  Uiso   1.00
H147   H     0.72072   0.74596   0.06050   0.00000  Uiso   1.00
H148   H     0.71068   0.79074   0.95333   0.00000  Uiso   1.00
H149   H     0.59764   0.78084   0.07838   0.00000  Uiso   1.00
H150   H     0.51358   0.73825   0.05822   0.00000  Uiso   1.00
H151   H     0.53493   0.83606   0.97762   0.00000  Uiso   1.00
H152   H     0.61926   0.87710   0.99646   0.00000  Uiso   1.00
H153   H     0.75141   0.87361   0.08828   0.00000  Uiso   1.00
H154   H     0.76252   0.87544   0.15397   0.00000  Uiso   1.00
H155   H     0.61797   0.86248   0.16912   0.00000  Uiso   1.00
H156   H     0.60563   0.85744   0.10355   0.00000  Uiso   1.00
H157   H     0.68230   0.98377   0.25732   0.00000  Uiso   1.00
H158   H     0.64782   0.90855   0.23578   0.00000  Uiso   1.00
H159   H     0.79027   0.92772   0.20273   0.00000  Uiso   1.00
H160   H     0.82461   0.00369   0.22254   0.00000  Uiso   1.00
H161   H     0.69694   0.79227   0.17622   0.00000  Uiso   1.00
H162   H     0.73911   0.75021   0.19558   0.00000  Uiso   1.00
H163   H     0.81058   0.84435   0.27976   0.00000  Uiso   1.00
H164   H     0.76638   0.88491   0.26161   0.00000  Uiso   1.00
H165   H     0.67496   0.86618   0.27916   0.00000  Uiso   1.00
H166   H     0.60300   0.81593   0.31357   0.00000  Uiso   1.00
H167   H     0.54307   0.74099   0.21711   0.00000  Uiso   1.00
H168   H     0.61474   0.79098   0.18261   0.00000  Uiso   1.00
C265   C     0.30992   0.00574   0.78075   0.00000  Uiso   1.00
C266   C     0.35162   0.03906   0.76583   0.00000  Uiso   1.00
C267   C     0.36173   0.08260   0.77083   0.00000  Uiso   1.00
C268   C     0.33018   0.09350   0.79080   0.00000  Uiso   1.00
C269   C     0.28843   0.05966   0.80598   0.00000  Uiso   1.00
C270   C     0.27831   0.01623   0.80094   0.00000  Uiso   1.00
H169   H     0.37675   0.03130   0.75019   0.00000  Uiso   1.00
H170   H     0.39480   0.10792   0.75907   0.00000  Uiso   1.00
H171   H     0.26373   0.06746   0.82213   0.00000  Uiso   1.00
H172   H     0.24569   0.99050   0.81293   0.00000  Uiso   1.00
C271   C     0.26472   0.12134   0.75655   0.00000  Uiso   1.00
C272   C     0.30397   0.15210   0.77607   0.00000  Uiso   1.00
C273   C     0.31215   0.19577   0.77530   0.00000  Uiso   1.00
C274   C     0.28155   0.20811   0.75599   0.00000  Uiso   1.00
C275   C     0.24225   0.17703   0.73685   0.00000  Uiso   1.00
C276   C     0.23409   0.13372   0.73715   0.00000  Uiso   1.00
C277   C     0.33937   0.14075   0.79772   0.00000  Uiso   1.00
C278   C     0.39088   0.17350   0.78569   0.00000  Uiso   1.00
C279   C     0.42845   0.19738   0.80977   0.00000  Uiso   1.00
C280   C     0.47436   0.22660   0.79732   0.00000  Uiso   1.00
C281   C     0.48430   0.23321   0.76024   0.00000  Uiso   1.00
C282   C     0.44643   0.20972   0.73600   0.00000  Uiso   1.00
C283   C     0.40069   0.18051   0.74852   0.00000  Uiso   1.00
C284   C     0.30430   0.16208   0.85372   0.00000  Uiso   1.00
C285   C     0.30304   0.16756   0.89105   0.00000  Uiso   1.00
C286   C     0.33118   0.15617   0.91423   0.00000  Uiso   1.00
C287   C     0.35739   0.13553   0.89931   0.00000  Uiso   1.00
C288   C     0.35838   0.12982   0.86221   0.00000  Uiso   1.00
C289   C     0.33321   0.14456   0.83860   0.00000  Uiso   1.00
C290   C     0.33323   0.16304   0.95531   0.00000  Uiso   1.00
C291   C     0.26437   0.02916   0.99361   0.00000  Uiso   1.00
C292   C     0.31367   0.05509   0.00009   0.00000  Uiso   1.00
C293   C     0.33629   0.09839   0.98850   0.00000  Uiso   1.00
C294   C     0.30974   0.11650   0.97057   0.00000  Uiso   1.00
C295   C     0.26035   0.08984   0.96343   0.00000  Uiso   1.00
C296   C     0.23779   0.04666   0.97504   0.00000  Uiso   1.00
C297   C     0.30734   0.18990   0.96771   0.00000  Uiso   1.00
C298   C     0.32161   0.23145   0.95276   0.00000  Uiso   1.00
C299   C     0.30096   0.25790   0.96443   0.00000  Uiso   1.00
C300   C     0.26591   0.24398   0.99206   0.00000  Uiso   1.00
C301   C     0.25253   0.20291   0.00755   0.00000  Uiso   1.00
C302   C     0.27306   0.17638   0.99567   0.00000  Uiso   1.00
C303   C     0.39488   0.19629   0.00560   0.00000  Uiso   1.00
C304   C     0.44136   0.22266   0.01855   0.00000  Uiso   1.00
C305   C     0.48031   0.24448   0.99462   0.00000  Uiso   1.00
C306   C     0.47085   0.23914   0.95742   0.00000  Uiso   1.00
C307   C     0.42428   0.21279   0.94454   0.00000  Uiso   1.00
C308   C     0.38569   0.19033   0.96836   0.00000  Uiso   1.00
H173   H     0.25762   0.08730   0.75604   0.00000  Uiso   1.00
H174   H     0.34305   0.22044   0.78979   0.00000  Uiso   1.00
H175   H     0.28853   0.24215   0.75582   0.00000  Uiso   1.00
H176   H     0.20372   0.10919   0.72210   0.00000  Uiso   1.00
H177   H     0.42256   0.19370   0.83885   0.00000  Uiso   1.00
H178   H     0.50289   0.24403   0.81696   0.00000  Uiso   1.00
H179   H     0.45248   0.21473   0.70698   0.00000  Uiso   1.00
H180   H     0.37192   0.16308   0.72903   0.00000  Uiso   1.00
H181   H     0.28229   0.17204   0.83666   0.00000  Uiso   1.00
H182   H     0.27993   0.18133   0.90166   0.00000  Uiso   1.00
H183   H     0.37772   0.12422   0.91693   0.00000  Uiso   1.00
H184   H     0.37933   0.11397   0.85137   0.00000  Uiso   1.00
H185   H     0.33494   0.04161   0.01414   0.00000  Uiso   1.00
H186   H     0.37499   0.11782   0.99350   0.00000  Uiso   1.00
H187   H     0.23944   0.10298   0.94844   0.00000  Uiso   1.00
H188   H     0.19935   0.02654   0.96940   0.00000  Uiso   1.00
H189   H     0.34967   0.24349   0.93192   0.00000  Uiso   1.00
H190   H     0.31300   0.29011   0.95248   0.00000  Uiso   1.00
H191   H     0.22534   0.19115   0.02900   0.00000  Uiso   1.00
H192   H     0.26204   0.14490   0.00867   0.00000  Uiso   1.00
H193   H     0.36513   0.18039   0.02478   0.00000  Uiso   1.00
H194   H     0.44716   0.22696   0.04762   0.00000  Uiso   1.00
H195   H     0.50023   0.25541   0.93805   0.00000  Uiso   1.00
H196   H     0.41854   0.21004   0.91544   0.00000  Uiso   1.00
C309   C     0.75852   0.02575   0.75448   0.00000  Uiso   1.00
C310   C     0.80903   0.04756   0.75988   0.00000  Uiso   1.00
C311   C     0.83165   0.09065   0.77147   0.00000  Uiso   1.00
C312   C     0.80474   0.11365   0.77829   0.00000  Uiso   1.00
C313   C     0.75400   0.09095   0.77573   0.00000  Uiso   1.00
C314   C     0.73134   0.04805   0.76347   0.00000  Uiso   1.00
H197   H     0.83126   0.03076   0.75518   0.00000  Uiso   1.00
H198   H     0.87096   0.10649   0.77501   0.00000  Uiso   1.00
H199   H     0.73164   0.10695   0.78300   0.00000  Uiso   1.00
H200   H     0.69195   0.03212   0.76042   0.00000  Uiso   1.00
C315   C     0.77873   0.17958   0.74546   0.00000  Uiso   1.00
C316   C     0.80762   0.18986   0.77649   0.00000  Uiso   1.00
C317   C     0.81992   0.23021   0.79311   0.00000  Uiso   1.00
C318   C     0.80155   0.25797   0.78057   0.00000  Uiso   1.00
C319   C     0.77009   0.24649   0.75073   0.00000  Uiso   1.00
C320   C     0.75970   0.20707   0.73314   0.00000  Uiso   1.00
C321   C     0.83019   0.16114   0.79099   0.00000  Uiso   1.00
C322   C     0.88259   0.18510   0.77662   0.00000  Uiso   1.00
C323   C     0.92050   0.21541   0.79758   0.00000  Uiso   1.00
C324   C     0.96692   0.23875   0.78293   0.00000  Uiso   1.00
C325   C     0.97603   0.23262   0.74700   0.00000  Uiso   1.00
C326   C     0.93818   0.20329   0.72562   0.00000  Uiso   1.00
C327   C     0.89183   0.18000   0.74024   0.00000  Uiso   1.00
C328   C     0.79213   0.16452   0.85169   0.00000  Uiso   1.00
C329   C     0.79271   0.16566   0.88934   0.00000  Uiso   1.00
C330   C     0.82851   0.16019   0.90873   0.00000  Uiso   1.00
C331   C     0.85997   0.14826   0.88951   0.00000  Uiso   1.00
C332   C     0.85964   0.14747   0.85189   0.00000  Uiso   1.00
C333   C     0.82758   0.15826   0.83238   0.00000  Uiso   1.00
C334   C     0.83259   0.16500   0.94997   0.00000  Uiso   1.00
C335   C     0.76669   0.03166   0.99098   0.00000  Uiso   1.00
C336   C     0.81732   0.05669   0.99130   0.00000  Uiso   1.00
C337   C     0.83884   0.09919   0.97799   0.00000  Uiso   1.00
C338   C     0.81045   0.11814   0.96432   0.00000  Uiso   1.00
C339   C     0.76004   0.09217   0.96192   0.00000  Uiso   1.00
C340   C     0.73844   0.04982   0.97531   0.00000  Uiso   1.00
C341   C     0.80670   0.19109   0.96443   0.00000  Uiso   1.00
C342   C     0.81789   0.23184   0.94899   0.00000  Uiso   1.00
C343   C     0.79712   0.25761   0.96200   0.00000  Uiso   1.00
C344   C     0.76437   0.24366   0.99119   0.00000  Uiso   1.00
C345   C     0.75421   0.20341   0.00714   0.00000  Uiso   1.00
C346   C     0.77544   0.17784   0.99428   0.00000  Uiso   1.00
C347   C     0.89609   0.19344   0.99947   0.00000  Uiso   1.00
C348   C     0.94273   0.21936   0.01230   0.00000  Uiso   1.00
C349   C     0.98007   0.24599   0.98871   0.00000  Uiso   1.00
C350   C     0.96870   0.24633   0.95208   0.00000  Uiso   1.00
C351   C     0.92197   0.22028   0.93930   0.00000  Uiso   1.00
C352   C     0.88520   0.19255   0.96258   0.00000  Uiso   1.00
H201   H     0.77037   0.14970   0.73056   0.00000  Uiso   1.00
H202   H     0.84429   0.24017   0.81630   0.00000  Uiso   1.00
H203   H     0.81230   0.28915   0.79407   0.00000  Uiso   1.00
H204   H     0.73584   0.19708   0.70968   0.00000  Uiso   1.00
H205   H     0.91420   0.22120   0.82560   0.00000  Uiso   1.00
H206   H     0.99602   0.26200   0.79977   0.00000  Uiso   1.00
H207   H     0.94467   0.19865   0.69734   0.00000  Uiso   1.00
H208   H     0.86247   0.15764   0.72308   0.00000  Uiso   1.00
H209   H     0.76420   0.16967   0.83747   0.00000  Uiso   1.00
H210   H     0.76531   0.17182   0.90341   0.00000  Uiso   1.00
H211   H     0.88582   0.14043   0.90402   0.00000  Uiso   1.00
H212   H     0.88540   0.13920   0.83766   0.00000  Uiso   1.00
H213   H     0.84034   0.04330   0.00275   0.00000  Uiso   1.00
H214   H     0.87830   0.11764   0.97873   0.00000  Uiso   1.00
H215   H     0.73728   0.10532   0.94960   0.00000  Uiso   1.00
H216   H     0.69917   0.03051   0.97325   0.00000  Uiso   1.00
H217   H     0.84347   0.24373   0.92649   0.00000  Uiso   1.00
H218   H     0.80719   0.28929   0.94960   0.00000  Uiso   1.00
H219   H     0.72897   0.19135   0.02981   0.00000  Uiso   1.00
H220   H     0.76707   0.14716   0.00788   0.00000  Uiso   1.00
H221   H     0.86762   0.17370   0.01852   0.00000  Uiso   1.00
H222   H     0.94994   0.21944   0.04114   0.00000  Uiso   1.00
H223   H     0.99674   0.26677   0.93304   0.00000  Uiso   1.00
H224   H     0.91464   0.22190   0.91070   0.00000  Uiso   1.00
C353   C     0.73394   0.48172   0.50230   0.00000  Uiso   1.00
C354   C     0.68770   0.46367   0.51847   0.00000  Uiso   1.00
C355   C     0.66731   0.42164   0.53251   0.00000  Uiso   1.00
C356   C     0.69207   0.39598   0.53044   0.00000  Uiso   1.00
C357   C     0.73887   0.41451   0.51558   0.00000  Uiso   1.00
C358   C     0.75939   0.45663   0.50151   0.00000  Uiso   1.00
H225   H     0.66774   0.48293   0.52064   0.00000  Uiso   1.00
H226   H     0.63164   0.40862   0.54534   0.00000  Uiso   1.00
H227   H     0.75985   0.39609   0.51470   0.00000  Uiso   1.00
H228   H     0.79547   0.46977   0.48937   0.00000  Uiso   1.00
C359   C     0.70043   0.31831   0.49774   0.00000  Uiso   1.00
C360   C     0.69356   0.32226   0.53482   0.00000  Uiso   1.00
C361   C     0.70502   0.29683   0.55885   0.00000  Uiso   1.00
C362   C     0.72504   0.27009   0.54649   0.00000  Uiso   1.00
C363   C     0.73332   0.26714   0.50954   0.00000  Uiso   1.00
C364   C     0.72011   0.29144   0.48531   0.00000  Uiso   1.00
C365   C     0.66865   0.35016   0.54686   0.00000  Uiso   1.00
C366   C     0.61624   0.32231   0.53402   0.00000  Uiso   1.00
C367   C     0.58795   0.28268   0.55167   0.00000  Uiso   1.00
C368   C     0.54168   0.25464   0.53943   0.00000  Uiso   1.00
C369   C     0.52245   0.26499   0.50860   0.00000  Uiso   1.00
C370   C     0.55099   0.30428   0.49069   0.00000  Uiso   1.00
C371   C     0.59729   0.33240   0.50308   0.00000  Uiso   1.00
C372   C     0.71589   0.37129   0.60580   0.00000  Uiso   1.00
C373   C     0.71782   0.37215   0.64339   0.00000  Uiso   1.00
C374   C     0.67529   0.35926   0.66396   0.00000  Uiso   1.00
C375   C     0.63257   0.35239   0.64594   0.00000  Uiso   1.00
C376   C     0.63059   0.35137   0.60830   0.00000  Uiso   1.00
C377   C     0.67135   0.35740   0.58783   0.00000  Uiso   1.00
C378   C     0.67637   0.35338   0.70500   0.00000  Uiso   1.00
C379   C     0.74210   0.48720   0.74542   0.00000  Uiso   1.00
C380   C     0.69220   0.46503   0.73754   0.00000  Uiso   1.00
C381   C     0.67132   0.42244   0.72460   0.00000  Uiso   1.00
C382   C     0.69908   0.39973   0.72025   0.00000  Uiso   1.00
C383   C     0.74906   0.42208   0.72706   0.00000  Uiso   1.00
C384   C     0.77017   0.46497   0.73923   0.00000  Uiso   1.00
C385   C     0.70478   0.32797   0.71549   0.00000  Uiso   1.00
C386   C     0.71298   0.30075   0.69116   0.00000  Uiso   1.00
C387   C     0.73499   0.27518   0.70231   0.00000  Uiso   1.00
C388   C     0.74840   0.27490   0.73849   0.00000  Uiso   1.00
C389   C     0.73928   0.30162   0.76302   0.00000  Uiso   1.00
C390   C     0.71791   0.32761   0.75172   0.00000  Uiso   1.00
C391   C     0.60800   0.33143   0.75263   0.00000  Uiso   1.00
C392   C     0.56233   0.30235   0.76569   0.00000  Uiso   1.00
C393   C     0.53312   0.26397   0.74688   0.00000  Uiso   1.00
C394   C     0.55175   0.25512   0.71494   0.00000  Uiso   1.00
C395   C     0.59720   0.28422   0.70194   0.00000  Uiso   1.00
C396   C     0.62555   0.32351   0.71997   0.00000  Uiso   1.00
H229   H     0.68987   0.33628   0.47825   0.00000  Uiso   1.00
H230   H     0.69859   0.29757   0.58774   0.00000  Uiso   1.00
H231   H     0.73472   0.25167   0.56612   0.00000  Uiso   1.00
H232   H     0.72445   0.28883   0.45630   0.00000  Uiso   1.00
H233   H     0.60252   0.27337   0.57513   0.00000  Uiso   1.00
H234   H     0.52080   0.22387   0.55345   0.00000  Uiso   1.00
H235   H     0.53693   0.31331   0.46679   0.00000  Uiso   1.00
H236   H     0.61862   0.36233   0.48814   0.00000  Uiso   1.00
H237   H     0.74918   0.38009   0.59036   0.00000  Uiso   1.00
H238   H     0.75261   0.38153   0.65676   0.00000  Uiso   1.00
H239   H     0.59976   0.34621   0.66110   0.00000  Uiso   1.00
H240   H     0.59627   0.34438   0.59514   0.00000  Uiso   1.00
H241   H     0.66892   0.48093   0.74168   0.00000  Uiso   1.00
H242   H     0.63275   0.40676   0.71791   0.00000  Uiso   1.00
H243   H     0.77213   0.40601   0.72272   0.00000  Uiso   1.00
H244   H     0.80933   0.48134   0.74354   0.00000  Uiso   1.00
H245   H     0.70214   0.29902   0.66298   0.00000  Uiso   1.00
H246   H     0.74174   0.25525   0.68230   0.00000  Uiso   1.00
H247   H     0.74796   0.30153   0.79155   0.00000  Uiso   1.00
H248   H     0.71071   0.34750   0.77153   0.00000  Uiso   1.00
H249   H     0.62980   0.36054   0.76834   0.00000  Uiso   1.00
H250   H     0.54922   0.31011   0.79073   0.00000  Uiso   1.00
H251   H     0.53089   0.22481   0.70035   0.00000  Uiso   1.00
H252   H     0.61089   0.27613   0.67733   0.00000  Uiso   1.00
C397   C     0.31539   0.49402   0.81414   0.00000  Uiso   1.00
C398   C     0.36368   0.52562   0.81229   0.00000  Uiso   1.00
C399   C     0.37488   0.56955   0.80849   0.00000  Uiso   1.00
C400   C     0.33788   0.58246   0.80599   0.00000  Uiso   1.00
C401   C     0.28944   0.55054   0.80881   0.00000  Uiso   1.00
C402   C     0.27827   0.50669   0.81258   0.00000  Uiso   1.00
H253   H     0.39299   0.51617   0.81400   0.00000  Uiso   1.00
H254   H     0.41289   0.59370   0.80761   0.00000  Uiso   1.00
H255   H     0.26013   0.56008   0.80825   0.00000  Uiso   1.00
H256   H     0.24039   0.48234   0.81454   0.00000  Uiso   1.00
C403   C     0.29537   0.61244   0.74807   0.00000  Uiso   1.00
C404   C     0.31670   0.63983   0.77762   0.00000  Uiso   1.00
C405   C     0.31273   0.67884   0.78015   0.00000  Uiso   1.00
C406   C     0.28630   0.68922   0.75468   0.00000  Uiso   1.00
C407   C     0.26402   0.66111   0.72587   0.00000  Uiso   1.00
C408   C     0.26897   0.62287   0.72254   0.00000  Uiso   1.00
C409   C     0.34873   0.63063   0.80465   0.00000  Uiso   1.00
C410   C     0.40017   0.66127   0.79135   0.00000  Uiso   1.00
C411   C     0.42693   0.70244   0.80686   0.00000  Uiso   1.00
C412   C     0.47175   0.73156   0.79267   0.00000  Uiso   1.00
C413   C     0.49122   0.72065   0.76222   0.00000  Uiso   1.00
C414   C     0.46412   0.67952   0.74649   0.00000  Uiso   1.00
C415   C     0.41920   0.65057   0.76059   0.00000  Uiso   1.00
C416   C     0.29929   0.64249   0.85613   0.00000  Uiso   1.00
C417   C     0.29443   0.65146   0.89230   0.00000  Uiso   1.00
C418   C     0.33095   0.65783   0.91733   0.00000  Uiso   1.00
C419   C     0.37059   0.65128   0.90582   0.00000  Uiso   1.00
C420   C     0.37570   0.64286   0.86976   0.00000  Uiso   1.00
C421   C     0.34100   0.64004   0.84405   0.00000  Uiso   1.00
C422   C     0.32672   0.66752   0.95734   0.00000  Uiso   1.00
C423   C     0.26424   0.53418   0.99790   0.00000  Uiso   1.00
C424   C     0.31441   0.56120   0.00020   0.00000  Uiso   1.00
C425   C     0.33445   0.60422   0.98826   0.00000  Uiso   1.00
C426   C     0.30496   0.62181   0.97408   0.00000  Uiso   1.00
C427   C     0.25491   0.59461   0.97122   0.00000  Uiso   1.00
C428   C     0.23480   0.55165   0.98315   0.00000  Uiso   1.00
C429   C     0.29584   0.69159   0.96384   0.00000  Uiso   1.00
C430   C     0.29958   0.72497   0.94036   0.00000  Uiso   1.00
C431   C     0.27403   0.74894   0.94723   0.00000  Uiso   1.00
C432   C     0.24488   0.74038   0.97798   0.00000  Uiso   1.00
C433   C     0.24198   0.70803   0.00201   0.00000  Uiso   1.00
C434   C     0.26751   0.68402   0.99513   0.00000  Uiso   1.00
C435   C     0.38511   0.69960   0.01041   0.00000  Uiso   1.00
C436   C     0.43020   0.72777   0.02470   0.00000  Uiso   1.00
C437   C     0.46787   0.75642   0.00228   0.00000  Uiso   1.00
C438   C     0.45774   0.75745   0.96542   0.00000  Uiso   1.00
C439   C     0.41253   0.72959   0.95128   0.00000  Uiso   1.00
C440   C     0.37620   0.69884   0.97323   0.00000  Uiso   1.00
H257   H     0.29932   0.58269   0.74465   0.00000  Uiso   1.00
H258   H     0.33072   0.70157   0.80208   0.00000  Uiso   1.00
H259   H     0.28337   0.71956   0.75726   0.00000  Uiso   1.00
H260   H     0.25240   0.60100   0.69983   0.00000  Uiso   1.00
H261   H     0.41270   0.71239   0.83018   0.00000  Uiso   1.00
H262   H     0.49123   0.76359   0.80505   0.00000  Uiso   1.00
H263   H     0.47824   0.66981   0.72295   0.00000  Uiso   1.00
H264   H     0.39857   0.61931   0.74725   0.00000  Uiso   1.00
H265   H     0.27005   0.63770   0.83741   0.00000  Uiso   1.00
H266   H     0.26167   0.65364   0.90072   0.00000  Uiso   1.00
H267   H     0.39812   0.65314   0.92513   0.00000  Uiso   1.00
H268   H     0.40728   0.63860   0.86147   0.00000  Uiso   1.00
H269   H     0.33825   0.54868   0.01162   0.00000  Uiso   1.00
H270   H     0.37366   0.62404   0.98997   0.00000  Uiso   1.00
H271   H     0.23126   0.60696   0.95916   0.00000  Uiso   1.00
H272   H     0.19585   0.53117   0.98014   0.00000  Uiso   1.00
H273   H     0.32278   0.73253   0.91651   0.00000  Uiso   1.00
H274   H     0.27714   0.77458   0.92853   0.00000  Uiso   1.00
H275   H     0.21988   0.70149   0.02639   0.00000  Uiso   1.00
H276   H     0.26527   0.65924   0.01444   0.00000  Uiso   1.00
H277   H     0.35665   0.67770   0.02852   0.00000  Uiso   1.00
H278   H     0.43594   0.72741   0.05372   0.00000  Uiso   1.00
H279   H     0.48574   0.77955   0.94715   0.00000  Uiso   1.00
H280   H     0.40609   0.73153   0.92255   0.00000  Uiso   1.00
C441   C     0.76488   0.53260   0.75903   0.00000  Uiso   1.00
C442   C     0.80844   0.54894   0.77884   0.00000  Uiso   1.00
C443   C     0.83129   0.59215   0.79002   0.00000  Uiso   1.00
C444   C     0.81152   0.62089   0.78220   0.00000  Uiso   1.00
C445   C     0.76671   0.60410   0.76445   0.00000  Uiso   1.00
C446   C     0.74423   0.56100   0.75260   0.00000  Uiso   1.00
H281   H     0.82482   0.52770   0.78593   0.00000  Uiso   1.00
H282   H     0.86521   0.60376   0.80507   0.00000  Uiso   1.00
H283   H     0.74885   0.62463   0.75929   0.00000  Uiso   1.00
H284   H     0.71028   0.54983   0.73767   0.00000  Uiso   1.00
C447   C     0.81075   0.69852   0.74232   0.00000  Uiso   1.00
C448   C     0.81841   0.69823   0.77968   0.00000  Uiso   1.00
C449   C     0.81103   0.72842   0.80101   0.00000  Uiso   1.00
C450   C     0.79254   0.75509   0.78616   0.00000  Uiso   1.00
C451   C     0.78180   0.75337   0.74919   0.00000  Uiso   1.00
C452   C     0.79246   0.72530   0.72735   0.00000  Uiso   1.00
C453   C     0.83846   0.66816   0.79545   0.00000  Uiso   1.00
C454   C     0.89187   0.69030   0.78314   0.00000  Uiso   1.00
C455   C     0.92405   0.72965   0.79937   0.00000  Uiso   1.00
C456   C     0.97203   0.75193   0.78759   0.00000  Uiso   1.00
C457   C     0.98852   0.73557   0.75900   0.00000  Uiso   1.00
C458   C     0.95649   0.69703   0.74214   0.00000  Uiso   1.00
C459   C     0.90844   0.67467   0.75398   0.00000  Uiso   1.00
C460   C     0.78936   0.65763   0.85304   0.00000  Uiso   1.00
C461   C     0.78512   0.65799   0.89049   0.00000  Uiso   1.00
C462   C     0.82435   0.66406   0.91281   0.00000  Uiso   1.00
C463   C     0.86596   0.66513   0.89659   0.00000  Uiso   1.00
C464   C     0.87067   0.66592   0.85907   0.00000  Uiso   1.00
C465   C     0.83340   0.66456   0.83675   0.00000  Uiso   1.00
C466   C     0.82024   0.66658   0.95394   0.00000  Uiso   1.00
C467   C     0.76281   0.53148   0.99004   0.00000  Uiso   1.00
C468   C     0.81291   0.55928   0.99094   0.00000  Uiso   1.00
C469   C     0.83145   0.60222   0.97902   0.00000  Uiso   1.00
C470   C     0.80051   0.61921   0.96662   0.00000  Uiso   1.00
C471   C     0.75079   0.59083   0.96374   0.00000  Uiso   1.00
C472   C     0.73224   0.54780   0.97529   0.00000  Uiso   1.00
C473   C     0.78801   0.68824   0.96483   0.00000  Uiso   1.00
C474   C     0.79333   0.72598   0.94669   0.00000  Uiso   1.00
C475   C     0.77015   0.75010   0.95900   0.00000  Uiso   1.00
C476   C     0.74067   0.73739   0.99004   0.00000  Uiso   1.00
C477   C     0.73455   0.69905   0.00766   0.00000  Uiso   1.00
C478   C     0.75828   0.67524   0.99555   0.00000  Uiso   1.00
C479   C     0.87443   0.69249   0.00939   0.00000  Uiso   1.00
C480   C     0.91620   0.72159   0.02734   0.00000  Uiso   1.00
C481   C     0.95237   0.75641   0.00873   0.00000  Uiso   1.00
C482   C     0.94597   0.76220   0.97219   0.00000  Uiso   1.00
C483   C     0.90417   0.73306   0.95423   0.00000  Uiso   1.00
C484   C     0.86836   0.69717   0.97235   0.00000  Uiso   1.00
H285   H     0.81910   0.67743   0.72458   0.00000  Uiso   1.00
H286   H     0.81914   0.73122   0.82980   0.00000  Uiso   1.00
H287   H     0.78551   0.77690   0.80397   0.00000  Uiso   1.00
H288   H     0.78678   0.72450   0.69824   0.00000  Uiso   1.00
H289   H     0.91145   0.74312   0.82139   0.00000  Uiso   1.00
H290   H     0.99657   0.78233   0.80068   0.00000  Uiso   1.00
H291   H     0.96880   0.68422   0.71950   0.00000  Uiso   1.00
H292   H     0.88395   0.64483   0.74017   0.00000  Uiso   1.00
H293   H     0.75826   0.65292   0.83634   0.00000  Uiso   1.00
H294   H     0.75100   0.65420   0.90229   0.00000  Uiso   1.00
H295   H     0.89569   0.66630   0.91322   0.00000  Uiso   1.00
H296   H     0.90428   0.66830   0.84741   0.00000  Uiso   1.00
H297   H     0.83793   0.54768   0.00169   0.00000  Uiso   1.00
H298   H     0.87059   0.62276   0.97994   0.00000  Uiso   1.00
H299   H     0.72603   0.60243   0.95249   0.00000  Uiso   1.00
H300   H     0.69342   0.52662   0.97255   0.00000  Uiso   1.00
H301   H     0.81682   0.73737   0.92300   0.00000  Uiso   1.00
H302   H     0.77640   0.77997   0.94482   0.00000  Uiso   1.00
H303   H     0.71121   0.68753   0.03140   0.00000  Uiso   1.00
H304   H     0.75378   0.64648   0.01071   0.00000  Uiso   1.00
H305   H     0.84615   0.66598   0.02454   0.00000  Uiso   1.00
H306   H     0.92030   0.71714   0.05607   0.00000  Uiso   1.00
H307   H     0.97353   0.78973   0.95748   0.00000  Uiso   1.00
H308   H     0.89966   0.73881   0.92584   0.00000  Uiso   1.00
C485   C     0.72968   0.97894   0.50231   0.00000  Uiso   1.00
C486   C     0.68301   0.96261   0.51767   0.00000  Uiso   1.00
C487   C     0.65878   0.91969   0.52951   0.00000  Uiso   1.00
C488   C     0.68013   0.89136   0.52651   0.00000  Uiso   1.00
C489   C     0.72746   0.90806   0.51274   0.00000  Uiso   1.00
C490   C     0.75155   0.95089   0.50040   0.00000  Uiso   1.00
H309   H     0.66549   0.98378   0.52095   0.00000  Uiso   1.00
H310   H     0.62268   0.90816   0.54136   0.00000  Uiso   1.00
H311   H     0.74607   0.88760   0.51133   0.00000  Uiso   1.00
H312   H     0.78780   0.96228   0.48884   0.00000  Uiso   1.00
C491   C     0.68221   0.81427   0.48880   0.00000  Uiso   1.00
C492   C     0.67075   0.81314   0.52559   0.00000  Uiso   1.00
C493   C     0.67235   0.78003   0.54679   0.00000  Uiso   1.00
C494   C     0.69000   0.75231   0.53281   0.00000  Uiso   1.00
C495   C     0.70520   0.75559   0.49665   0.00000  Uiso   1.00
C496   C     0.69920   0.78612   0.47460   0.00000  Uiso   1.00
C497   C     0.65307   0.84488   0.54141   0.00000  Uiso   1.00
C498   C     0.59884   0.82298   0.53153   0.00000  Uiso   1.00
C499   C     0.56565   0.78840   0.55251   0.00000  Uiso   1.00
C500   C     0.51688   0.76641   0.54262   0.00000  Uiso   1.00
C501   C     0.50059   0.77819   0.51127   0.00000  Uiso   1.00
C502   C     0.53359   0.81179   0.48972   0.00000  Uiso   1.00
C503   C     0.58239   0.83383   0.49964   0.00000  Uiso   1.00
C504   C     0.70353   0.85143   0.59768   0.00000  Uiso   1.00
C505   C     0.70881   0.85124   0.63506   0.00000  Uiso   1.00
C506   C     0.67300   0.85171   0.65811   0.00000  Uiso   1.00
C507   C     0.63499   0.85786   0.64268   0.00000  Uiso   1.00
C508   C     0.62897   0.85672   0.60533   0.00000  Uiso   1.00
C509   C     0.66156   0.85060   0.58235   0.00000  Uiso   1.00
C510   C     0.67535   0.84728   0.69921   0.00000  Uiso   1.00
C511   C     0.73560   0.98084   0.73985   0.00000  Uiso   1.00
C512   C     0.68732   0.95123   0.74769   0.00000  Uiso   1.00
C513   C     0.66697   0.90866   0.73449   0.00000  Uiso   1.00
C514   C     0.69459   0.89387   0.71378   0.00000  Uiso   1.00
C515   C     0.74216   0.92399   0.70448   0.00000  Uiso   1.00
C516   C     0.76223   0.96658   0.71711   0.00000  Uiso   1.00
C517   C     0.70807   0.82608   0.71004   0.00000  Uiso   1.00
C518   C     0.69979   0.78613   0.69437   0.00000  Uiso   1.00
C519   C     0.72458   0.76327   0.70625   0.00000  Uiso   1.00
C520   C     0.75853   0.77945   0.73448   0.00000  Uiso   1.00
C521   C     0.76734   0.81975   0.74967   0.00000  Uiso   1.00
C522   C     0.74223   0.84246   0.73789   0.00000  Uiso   1.00
C523   C     0.61943   0.81195   0.75279   0.00000  Uiso   1.00
C524   C     0.57616   0.78147   0.76814   0.00000  Uiso   1.00
C525   C     0.53806   0.75231   0.74643   0.00000  Uiso   1.00
C526   C     0.54551   0.75418   0.70894   0.00000  Uiso   1.00
C527   C     0.58885   0.78464   0.69368   0.00000  Uiso   1.00
C528   C     0.62604   0.81501   0.71517   0.00000  Uiso   1.00
H313   H     0.67824   0.83767   0.47091   0.00000  Uiso   1.00
H314   H     0.66067   0.77603   0.57492   0.00000  Uiso   1.00
H315   H     0.69290   0.72851   0.55081   0.00000  Uiso   1.00
H316   H     0.70791   0.78816   0.44589   0.00000  Uiso   1.00
H317   H     0.57788   0.77836   0.57682   0.00000  Uiso   1.00
H318   H     0.49157   0.73980   0.55942   0.00000  Uiso   1.00
H319   H     0.52142   0.82088   0.46490   0.00000  Uiso   1.00
H320   H     0.60770   0.85966   0.48222   0.00000  Uiso   1.00
H321   H     0.73187   0.85073   0.58042   0.00000  Uiso   1.00
H322   H     0.74079   0.84970   0.64606   0.00000  Uiso   1.00
H323   H     0.60880   0.86218   0.65999   0.00000  Uiso   1.00
H324   H     0.59781   0.85963   0.59425   0.00000  Uiso   1.00
H325   H     0.66511   0.96102   0.76482   0.00000  Uiso   1.00
H326   H     0.62917   0.88698   0.74093   0.00000  Uiso   1.00
H327   H     0.76395   0.91393   0.68714   0.00000  Uiso   1.00
H328   H     0.79907   0.98904   0.70890   0.00000  Uiso   1.00
H329   H     0.67281   0.77222   0.67301   0.00000  Uiso   1.00
H330   H     0.71631   0.73180   0.69410   0.00000  Uiso   1.00
H331   H     0.79408   0.83379   0.77114   0.00000  Uiso   1.00
H332   H     0.74938   0.87313   0.75103   0.00000  Uiso   1.00
H333   H     0.64870   0.83340   0.77047   0.00000  Uiso   1.00
H334   H     0.57242   0.77993   0.79747   0.00000  Uiso   1.00
H335   H     0.51697   0.73192   0.69117   0.00000  Uiso   1.00
H336   H     0.59314   0.78427   0.66449   0.00000  Uiso   1.00
H337   H     0.29088   0.97311   0.47356   0.00000  Uiso   1.00
H338   H     0.97133   0.77264   0.53070   0.00000  Uiso   1.00
H339   H     0.30212   0.97179   0.77682   0.00000  Uiso   1.00
H340   H     0.24336   0.66920   0.70594   0.00000  Uiso   1.00
H341   H     0.02603   0.75297   0.74974   0.00000  Uiso   1.00
H342   H     0.46247   0.76102   0.50353   0.00000  Uiso   1.00
H343   H     0.53598   0.75319   0.28278   0.00000  Uiso   1.00
H344   H     0.27294   0.53403   0.23193   0.00000  Uiso   1.00
H345   H     0.25533   0.00555   0.24375   0.00000  Uiso   1.00
H346   H     0.04201   0.76134   0.26073   0.00000  Uiso   1.00
H347   H     0.24680   0.99539   0.00268   0.00000  Uiso   1.00
H348   H     0.22489   0.75909   0.98334   0.00000  Uiso   1.00
H349   H     0.98505   0.77917   0.02273   0.00000  Uiso   1.00
H350   H     0.20551   0.18789   0.52389   0.00000  Uiso   1.00
H351   H     0.99616   0.25848   0.53027   0.00000  Uiso   1.00
H352   H     0.21830   0.18661   0.72168   0.00000  Uiso   1.00
H353   H     0.01230   0.25085   0.73560   0.00000  Uiso   1.00
H354   H     0.30671   0.45974   0.81711   0.00000  Uiso   1.00
loop_
_geom_bond_atom_site_label_1
_geom_bond_atom_site_label_2
_geom_bond_distance
_geom_bond_site_symmetry_2
_ccdc_geom_bond_type
C1     C2      1.386   .     D
C1     C6      1.389   .     S
C1     H345    1.084   .     S
C2     C3      1.389   .     S
C2     H1      1.085   .     S
C3     C4      1.391   .     D
C3     H2      1.083   .     S
C4     C5      1.397   .     S
C4     C13     1.529   .     S
C5     C6      1.386   .     D
C5     H3      1.085   .     S
C6     H4      1.084   .     S
C7     C8      1.391   .     D
C7     C12     1.386   .     S
C7     H5      1.083   .     S
C8     C9      1.397   .     S
C8     C13     1.528   .     S
C9     C10     1.384   .     D
C9     H6      1.085   .     S
C10    C11     1.397   .     S
C10    H7      1.085   .     S
C11    C12     1.395   .     D
C11    C80     1.473   .     S
C12    H8      1.084   .     S
C13    C14     1.530   .     S
C13    C25     1.527   .     S
C14    C15     1.392   .     D
C14    C19     1.397   .     S
C15    C16     1.387   .     S
C15    H9      1.084   .     S
C16    C17     1.395   .     D
C16    H10     1.084   .     S
C17    C18     1.399   .     S
C17    C173    1.473   .     S
C18    C19     1.382   .     D
C18    H11     1.084   .     S
C19    H12     1.085   .     S
C20    C21     1.390   .     S
C20    C25     1.389   .     D
C20    H13     1.083   .     S
C21    C22     1.388   .     D
C21    H14     1.083   .     S
C22    C23     1.399   .     S
C22    C26     1.530   .     S
C23    C24     1.382   .     D
C23    H15     1.084   .     S
C24    C25     1.397   .     S
C24    H16     1.085   .     S
C26    C30     1.531   .     S
C26    C33     1.531   .     S
C26    C44     1.533   .     S
C27    C28     1.386   .     D
C27    C32     1.388   .     S
C27    H337    1.084   1_545 S
C28    C29     1.389   .     S
C28    H17     1.084   .     S
C29    C30     1.391   .     D
C29    H18     1.083   .     S
C30    C31     1.398   .     S
C31    C32     1.386   .     D
C31    H19     1.085   .     S
C32    H20     1.085   1_545 S
C33    C34     1.398   .     D
C33    C38     1.391   .     S
C34    C35     1.386   .     S
C34    H21     1.085   .     S
C35    C36     1.388   .     D
C35    H22     1.085   .     S
C36    C37     1.386   .     S
C36    H350    1.084   .     S
C37    C38     1.389   .     D
C37    H23     1.085   .     S
C38    H24     1.083   .     S
C39    C40     1.384   .     D
C39    C44     1.398   .     S
C39    H25     1.085   .     S
C40    C41     1.397   .     S
C40    H26     1.084   .     S
C41    C42     1.394   .     D
C41    C369    1.472   .     S
C42    C43     1.385   .     S
C42    H27     1.085   .     S
C43    C44     1.392   .     D
C43    H28     1.083   .     S
H20    C32     1.085   1_565 S
C45    C46     1.397   .     D
C45    C50     1.395   .     S
C45    C423    1.473   1_554 S
C46    C47     1.383   .     S
C46    H29     1.084   .     S
C47    C48     1.397   .     D
C47    H30     1.085   .     S
C48    C49     1.391   .     S
C48    C57     1.525   .     S
C49    C50     1.387   .     D
C49    H31     1.084   .     S
C50    H32     1.084   1_554 S
H32    C50     1.084   1_556 S
C51    C52     1.396   1_556 S
C51    C56     1.385   .     D
C51    H33     1.085   .     S
C52    C51     1.396   1_554 S
C52    C53     1.393   .     D
C52    C57     1.529   .     S
C53    C54     1.385   .     S
C53    H34     1.084   .     S
C54    C55     1.395   .     D
C54    H35     1.084   .     S
C55    C56     1.397   1_554 S
C55    C300    1.474   1_554 S
C56    C55     1.397   1_556 S
C56    H36     1.084   .     S
C57    C58     1.529   .     S
C57    C69     1.528   .     S
C58    C59     1.397   .     D
C58    C63     1.391   .     S
C59    C60     1.383   .     S
C59    H37     1.085   .     S
C60    C61     1.397   .     D
C60    H38     1.084   .     S
C61    C62     1.395   1_554 S
C61    C349    1.473   1_454 S
C62    C61     1.395   1_556 S
C62    C63     1.387   1_556 D
C62    H39     1.084   .     S
C63    C62     1.387   1_554 D
C63    H40     1.084   1_554 S
C64    C65     1.383   .     D
C64    C69     1.397   .     S
C64    H41     1.085   .     S
C65    C66     1.396   .     S
C65    H42     1.084   .     S
C66    C67     1.390   .     D
C66    C70     1.528   .     S
C67    C68     1.388   .     S
C67    H43     1.083   .     S
C68    C69     1.389   .     D
C68    H44     1.083   .     S
C70    C74     1.526   .     S
C70    C77     1.529   .     S
C70    C88     1.529   .     S
C71    C72     1.389   .     D
C71    C76     1.386   .     S
C71    H344    1.084   .     S
C72    C73     1.386   .     S
C72    H45     1.084   .     S
C73    C74     1.397   .     D
C73    H46     1.085   .     S
C74    C75     1.391   .     S
C75    C76     1.389   .     D
C75    H47     1.084   .     S
C76    H48     1.085   .     S
C77    C78     1.392   .     D
C77    C82     1.397   .     S
C78    C79     1.385   .     S
C78    H49     1.083   .     S
C79    C80     1.394   .     D
C79    H50     1.084   .     S
C80    C81     1.397   .     S
C81    C82     1.385   .     D
C81    H51     1.084   .     S
C82    H52     1.085   .     S
C83    C84     1.388   .     D
C83    C88     1.390   .     S
C83    H53     1.083   .     S
C84    C85     1.396   .     S
C84    H54     1.084   .     S
C85    C86     1.399   .     D
C85    C105    1.472   1_455 S
C86    C87     1.380   .     S
C86    H55     1.084   .     S
C87    C88     1.398   .     D
C87    H56     1.085   .     S
H40    C63     1.084   1_556 S
C89    C90     1.398   .     S
C89    C94     1.396   .     D
C89    C247    1.473   1_545 S
C90    C91     1.383   .     D
C90    H57     1.084   .     S
C91    C92     1.395   .     S
C91    H58     1.084   .     S
C92    C93     1.393   .     D
C92    C101    1.526   .     S
C93    C94     1.386   .     S
C93    H59     1.084   .     S
C94    H60     1.084   .     S
C95    C96     1.396   .     D
C95    C100    1.383   .     S
C95    H61     1.084   .     S
C96    C97     1.393   .     S
C96    C101    1.529   .     S
C97    C98     1.385   .     D
C97    H62     1.084   .     S
C98    C99     1.398   .     S
C98    H63     1.084   .     S
C99    C100    1.399   .     D
C99    C168    1.474   .     S
C100   H64     1.084   .     S
C101   C102    1.527   .     S
C101   C113    1.525   .     S
C102   C103    1.394   .     D
C102   C107    1.393   .     S
C103   C104    1.385   .     S
C103   H65     1.084   .     S
C104   C105    1.397   .     D
C104   H66     1.084   1_655 S
C105   C85     1.472   1_655 S
C105   C106    1.398   .     S
C106   C107    1.383   .     D
C106   H67     1.084   .     S
C107   H68     1.084   .     S
C108   C109    1.384   .     S
C108   C113    1.394   .     D
C108   H69     1.084   .     S
C109   C110    1.394   .     D
C109   H70     1.084   .     S
C110   C111    1.392   .     S
C110   C114    1.526   .     S
C111   C112    1.388   .     D
C111   H71     1.084   .     S
C112   C113    1.393   .     S
C112   H72     1.084   .     S
C114   C118    1.524   .     S
C114   C121    1.530   .     S
C114   C132    1.530   .     S
C115   C116    1.397   .     D
C115   C120    1.398   .     S
C115   C485    1.473   1_545 S
C116   C117    1.385   .     S
C116   H73     1.084   .     S
C117   C118    1.393   .     D
C117   H74     1.084   .     S
C118   C119    1.395   .     S
C119   C120    1.384   .     D
C119   H75     1.084   .     S
C120   H76     1.084   .     S
C121   C122    1.395   .     S
C121   C126    1.392   .     D
C122   C123    1.383   .     D
C122   H77     1.084   .     S
C123   C124    1.397   .     S
C123   H78     1.085   .     S
C124   C125    1.396   .     D
C124   C363    1.472   .     S
C125   C126    1.386   .     S
C125   H79     1.084   .     S
C126   H80     1.084   .     S
C127   C128    1.387   .     D
C127   C132    1.395   .     S
C127   H81     1.084   .     S
C128   C129    1.388   .     S
C128   H82     1.084   .     S
C129   C130    1.387   .     D
C129   H351    1.084   .     S
C130   C131    1.388   .     S
C130   H83     1.085   .     S
C131   C132    1.394   .     D
C131   H84     1.084   .     S
H66    C104    1.084   1_455 S
C133   C134    1.398   .     D
C133   C138    1.396   .     S
C133   C467    1.473   1_554 S
C134   C135    1.383   .     S
C134   H85     1.084   .     S
C135   C136    1.396   .     D
C135   H86     1.084   .     S
C136   C137    1.392   .     S
C136   C145    1.525   .     S
C137   C138    1.387   .     D
C137   H87     1.084   .     S
C138   H88     1.085   1_554 S
H88    C138    1.085   1_556 S
C139   C140    1.396   1_556 S
C139   C144    1.384   .     D
C139   H89     1.084   .     S
C140   C139    1.396   1_554 S
C140   C141    1.393   .     D
C140   C145    1.529   .     S
C141   C142    1.385   .     S
C141   H90     1.084   .     S
C142   C143    1.396   .     D
C142   H91     1.084   .     S
C143   C144    1.398   1_554 S
C143   C344    1.473   1_554 S
C144   C143    1.398   1_556 S
C144   H92     1.084   .     S
C145   C146    1.529   .     S
C145   C157    1.526   .     S
C146   C147    1.396   .     D
C146   C151    1.393   .     S
C147   C148    1.384   .     S
C147   H93     1.085   .     S
C148   C149    1.397   .     D
C148   H94     1.084   .     S
C149   C150    1.396   1_554 S
C149   C305    1.473   1_554 S
C150   C149    1.396   1_556 S
C150   C151    1.385   1_556 D
C150   H95     1.084   .     S
C151   C150    1.385   1_554 D
C151   H96     1.084   1_554 S
C152   C153    1.386   .     D
C152   C157    1.394   .     S
C152   H97     1.084   .     S
C153   C154    1.393   .     S
C153   H98     1.084   .     S
C154   C155    1.393   .     D
C154   C158    1.528   .     S
C155   C156    1.386   .     S
C155   H99     1.084   .     S
C156   C157    1.393   .     D
C156   H100    1.084   .     S
C158   C162    1.525   .     S
C158   C165    1.529   .     S
C158   C176    1.530   .     S
C159   C160    1.397   .     S
C159   C164    1.398   .     D
C159   C177    1.473   .     S
C160   C161    1.387   .     D
C160   H101    1.085   .     S
C161   C162    1.393   .     S
C161   H102    1.084   .     S
C162   C163    1.395   .     D
C163   C164    1.383   .     S
C163   H103    1.084   .     S
C164   H104    1.084   .     S
C165   C166    1.394   .     D
C165   C170    1.393   .     S
C166   C167    1.383   .     S
C166   H105    1.084   .     S
C167   C168    1.399   .     D
C167   H106    1.084   .     S
C168   C169    1.398   .     S
C169   C170    1.385   .     D
C169   H107    1.084   .     S
C170   H108    1.084   .     S
C171   C172    1.387   .     D
C171   C176    1.394   .     S
C171   H109    1.084   .     S
C172   C173    1.396   .     S
C172   H110    1.085   .     S
C173   C174    1.397   .     D
C174   C175    1.382   .     S
C174   H111    1.084   .     S
C175   C176    1.396   .     D
C175   H112    1.084   .     S
H96    C151    1.084   1_556 S
C177   C178    1.399   .     S
C177   C182    1.396   .     D
C178   C179    1.383   .     D
C178   H113    1.084   .     S
C179   C180    1.396   .     S
C179   H114    1.085   .     S
C180   C181    1.392   .     D
C180   C189    1.526   .     S
C181   C182    1.387   .     S
C181   H115    1.084   .     S
C182   H116    1.084   .     S
C183   C184    1.395   .     S
C183   C188    1.386   .     D
C183   H117    1.085   .     S
C184   C185    1.393   .     D
C184   C189    1.529   .     S
C185   C186    1.384   .     S
C185   H118    1.083   .     S
C186   C187    1.396   .     D
C186   H119    1.084   .     S
C187   C188    1.398   .     S
C187   C256    1.473   .     S
C188   H120    1.084   .     S
C189   C190    1.529   .     S
C189   C201    1.528   .     S
C190   C191    1.396   .     S
C190   C195    1.393   .     D
C191   C192    1.386   .     D
C191   H121    1.084   .     S
C192   C193    1.389   1_655 S
C192   H122    1.084   1_655 S
C193   C192    1.389   1_455 S
C193   C194    1.387   1_455 D
C193   H346    1.084   .     S
C194   C193    1.387   1_655 D
C194   C195    1.389   .     S
C194   H123    1.084   .     S
C195   H124    1.084   .     S
C196   C197    1.384   .     S
C196   C201    1.395   .     D
C196   H125    1.085   .     S
C197   C198    1.394   .     D
C197   H126    1.084   .     S
C198   C199    1.393   .     S
C198   C202    1.525   .     S
C199   C200    1.388   .     D
C199   H127    1.084   .     S
C200   C201    1.392   .     S
C200   H128    1.084   .     S
C202   C206    1.524   .     S
C202   C209    1.530   .     S
C202   C220    1.531   .     S
C203   C204    1.396   .     S
C203   C208    1.397   .     D
C203   C353    1.473   .     S
C204   C205    1.386   .     D
C204   H129    1.084   .     S
C205   C206    1.393   .     S
C205   H130    1.084   .     S
C206   C207    1.395   .     D
C207   C208    1.384   .     S
C207   H131    1.084   .     S
C208   H132    1.084   .     S
C209   C210    1.396   .     S
C209   C214    1.392   .     D
C210   C211    1.383   .     D
C210   H133    1.085   .     S
C211   C212    1.399   .     S
C211   H134    1.084   .     S
C212   C213    1.397   .     D
C212   C495    1.472   .     S
C213   C214    1.385   .     S
C213   H135    1.084   .     S
C214   H136    1.084   .     S
C215   C216    1.386   .     D
C215   C220    1.396   .     S
C215   H137    1.085   .     S
C216   C217    1.388   .     S
C216   H138    1.085   .     S
C217   C218    1.387   .     D
C217   H338    1.084   .     S
C218   C219    1.388   .     S
C218   H139    1.084   .     S
C219   C220    1.393   .     D
C219   H140    1.084   .     S
H122   C192    1.084   1_455 S
C221   C222    1.397   .     S
C221   C226    1.395   .     D
C221   C335    1.474   1_564 S
C222   C223    1.383   .     D
C222   H141    1.084   .     S
C223   C224    1.396   .     S
C223   H142    1.085   .     S
C224   C225    1.392   .     D
C224   C233    1.526   .     S
C225   C226    1.387   .     S
C225   H143    1.084   .     S
C226   H144    1.085   1_554 S
H144   C226    1.085   1_556 S
C227   C228    1.396   1_556 D
C227   C232    1.384   .     S
C227   H145    1.085   .     S
C228   C227    1.396   1_554 D
C228   C229    1.393   .     S
C228   C233    1.531   .     S
C229   C230    1.385   .     D
C229   H146    1.084   .     S
C230   C231    1.396   .     S
C230   H147    1.084   .     S
C231   C232    1.399   1_554 D
C231   C476    1.473   1_554 S
C232   C231    1.399   1_556 D
C232   H148    1.084   .     S
C233   C234    1.528   .     S
C233   C245    1.526   .     S
C234   C235    1.396   .     D
C234   C239    1.392   .     S
C235   C236    1.383   .     S
C235   H149    1.085   .     S
C236   C237    1.398   .     D
C236   H150    1.084   .     S
C237   C238    1.396   1_554 S
C237   C437    1.472   .     S
C238   C237    1.396   1_556 S
C238   C239    1.385   1_556 D
C238   H151    1.084   .     S
C239   C238    1.385   1_554 D
C239   H152    1.083   1_554 S
C240   C241    1.384   .     D
C240   C245    1.395   .     S
C240   H153    1.085   .     S
C241   C242    1.394   .     S
C241   H154    1.084   .     S
C242   C243    1.392   .     D
C242   C246    1.525   .     S
C243   C244    1.388   .     S
C243   H155    1.084   .     S
C244   C245    1.391   .     D
C244   H156    1.084   .     S
C246   C250    1.524   .     S
C246   C253    1.530   .     S
C246   C264    1.531   .     S
C247   C89     1.473   1_565 S
C247   C248    1.396   .     S
C247   C252    1.398   .     D
C248   C249    1.386   .     D
C248   H157    1.084   .     S
C249   C250    1.393   .     S
C249   H158    1.084   .     S
C250   C251    1.395   .     D
C251   C252    1.384   .     S
C251   H159    1.084   .     S
C252   H160    1.084   1_565 S
C253   C254    1.396   .     D
C253   C258    1.393   .     S
C254   C255    1.383   .     S
C254   H161    1.085   .     S
C255   C256    1.398   .     D
C255   H162    1.084   .     S
C256   C257    1.397   .     S
C257   C258    1.385   .     D
C257   H163    1.084   .     S
C258   H164    1.084   .     S
C259   C260    1.387   .     D
C259   C264    1.396   .     S
C259   H165    1.084   .     S
C260   C261    1.388   .     S
C260   H166    1.084   .     S
C261   C262    1.387   .     D
C261   H343    1.084   .     S
C262   C263    1.388   .     S
C262   H167    1.085   .     S
C263   C264    1.393   .     D
C263   H168    1.084   .     S
H152   C239    1.083   1_556 S
H160   C252    1.084   1_545 S
C265   C266    1.386   .     D
C265   C270    1.389   .     S
C265   H339    1.084   1_545 S
C266   C267    1.389   .     S
C266   H169    1.085   .     S
C267   C268    1.391   .     D
C267   H170    1.083   .     S
C268   C269    1.398   .     S
C268   C277    1.531   .     S
C269   C270    1.386   .     D
C269   H171    1.085   .     S
C270   H172    1.084   1_545 S
H172   C270    1.084   1_565 S
C271   C272    1.391   .     S
C271   C276    1.389   .     D
C271   H173    1.083   .     S
C272   C273    1.398   .     D
C272   C277    1.531   .     S
C273   C274    1.386   .     S
C273   H174    1.084   .     S
C274   C275    1.389   .     D
C274   H175    1.084   .     S
C275   C276    1.386   .     S
C275   H352    1.084   .     S
C276   H176    1.085   .     S
C277   C278    1.533   .     S
C277   C289    1.529   .     S
C278   C279    1.392   .     D
C278   C283    1.398   .     S
C279   C280    1.386   .     S
C279   H177    1.083   .     S
C280   C281    1.394   .     D
C280   H178    1.084   .     S
C281   C282    1.398   .     S
C281   C393    1.473   .     S
C282   C283    1.383   .     D
C282   H179    1.084   .     S
C283   H180    1.085   .     S
C284   C285    1.390   .     S
C284   C289    1.388   .     D
C284   H181    1.083   .     S
C285   C286    1.389   .     D
C285   H182    1.083   .     S
C286   C287    1.397   .     S
C286   C290    1.528   .     S
C287   C288    1.382   .     D
C287   H183    1.085   .     S
C288   C289    1.399   .     S
C288   H184    1.085   .     S
C290   C294    1.528   .     S
C290   C297    1.528   .     S
C290   C308    1.530   .     S
C291   C292    1.386   1_556 D
C291   C296    1.389   .     S
C291   H347    1.084   1_546 S
C292   C291    1.386   1_554 D
C292   C293    1.389   1_554 S
C292   H185    1.084   .     S
C293   C292    1.389   1_556 S
C293   C294    1.391   .     D
C293   H186    1.083   .     S
C294   C295    1.397   .     S
C295   C296    1.386   .     D
C295   H187    1.085   .     S
C296   H188    1.084   .     S
C297   C298    1.397   .     S
C297   C302    1.392   .     D
C298   C299    1.384   .     D
C298   H189    1.085   .     S
C299   C300    1.397   .     S
C299   H190    1.085   .     S
C300   C55     1.474   1_556 S
C300   C301    1.395   1_556 D
C301   C300    1.395   1_554 D
C301   C302    1.386   1_554 S
C301   H191    1.084   .     S
C302   C301    1.386   1_556 S
C302   H192    1.083   1_556 S
C303   C304    1.384   .     S
C303   C308    1.397   1_554 D
C303   H193    1.085   .     S
C304   C305    1.398   1_554 D
C304   H194    1.084   .     S
C305   C149    1.473   1_556 S
C305   C304    1.398   1_556 D
C305   C306    1.395   .     S
C306   C307    1.385   .     D
C306   H195    1.084   .     S
C307   C308    1.392   .     S
C307   H196    1.083   .     S
C308   C303    1.397   1_556 D
H192   C302    1.083   1_554 S
C309   C310    1.398   .     S
C309   C314    1.398   .     D
C309   C511    1.474   1_545 S
C310   C311    1.384   .     D
C310   H197    1.084   .     S
C311   C312    1.394   .     S
C311   H198    1.084   .     S
C312   C313    1.394   .     D
C312   C321    1.525   .     S
C313   C314    1.386   .     S
C313   H199    1.084   .     S
C314   H200    1.084   .     S
C315   C316    1.392   .     D
C315   C320    1.386   .     S
C315   H201    1.084   .     S
C316   C317    1.397   .     S
C316   C321    1.529   .     S
C317   C318    1.383   .     D
C317   H202    1.085   .     S
C318   C319    1.398   .     S
C318   H203    1.084   .     S
C319   C320    1.397   .     D
C319   C388    1.473   .     S
C320   H204    1.084   .     S
C321   C322    1.531   .     S
C321   C333    1.527   .     S
C322   C323    1.393   .     D
C322   C327    1.396   .     S
C323   C324    1.388   .     S
C323   H205    1.084   .     S
C324   C325    1.387   .     D
C324   H206    1.084   .     S
C325   C326    1.388   .     S
C325   H353    1.084   1_655 S
C326   C327    1.386   .     D
C326   H207    1.085   .     S
C327   H208    1.085   .     S
C328   C329    1.387   .     D
C328   C333    1.392   .     S
C328   H209    1.084   .     S
C329   C330    1.391   .     S
C329   H210    1.084   .     S
C330   C331    1.395   .     D
C330   C334    1.527   .     S
C331   C332    1.385   .     S
C331   H211    1.085   .     S
C332   C333    1.395   .     D
C332   H212    1.085   .     S
C334   C338    1.525   .     S
C334   C341    1.530   .     S
C334   C352    1.529   .     S
C335   C221    1.474   1_546 S
C335   C336    1.395   .     S
C335   C340    1.397   .     D
C336   C337    1.387   .     D
C336   H213    1.084   1_556 S
C337   C338    1.392   .     S
C337   H214    1.084   .     S
C338   C339    1.396   .     D
C339   C340    1.384   .     S
C339   H215    1.085   .     S
C340   H216    1.084   .     S
C341   C342    1.397   .     S
C341   C346    1.392   .     D
C342   C343    1.383   .     D
C342   H217    1.085   .     S
C343   C344    1.398   .     S
C343   H218    1.084   .     S
C344   C143    1.473   1_556 S
C344   C345    1.396   1_556 D
C345   C344    1.396   1_554 D
C345   C346    1.386   1_554 S
C345   H219    1.084   .     S
C346   C345    1.386   1_556 S
C346   H220    1.084   1_556 S
C347   C348    1.384   1_556 S
C347   C352    1.396   .     D
C347   H221    1.085   1_556 S
C348   C347    1.384   1_554 S
C348   C349    1.397   1_554 D
C348   H222    1.085   .     S
C349   C61     1.473   1_656 S
C349   C348    1.397   1_556 D
C349   C350    1.395   .     S
C350   C351    1.386   .     D
C350   H223    1.084   .     S
C351   C352    1.393   .     S
C351   H224    1.084   .     S
H213   C336    1.084   1_554 S
H220   C346    1.084   1_554 S
H221   C347    1.085   1_554 S
C353   C354    1.398   .     S
C353   C358    1.395   .     D
C354   C355    1.383   .     D
C354   H225    1.084   .     S
C355   C356    1.396   .     S
C355   H226    1.085   .     S
C356   C357    1.392   .     D
C356   C365    1.524   .     S
C357   C358    1.386   .     S
C357   H227    1.084   .     S
C358   H228    1.084   .     S
C359   C360    1.397   .     S
C359   C364    1.383   .     D
C359   H229    1.085   .     S
C360   C361    1.392   .     D
C360   C365    1.530   .     S
C361   C362    1.386   .     S
C361   H230    1.084   .     S
C362   C363    1.395   .     D
C362   H231    1.084   .     S
C363   C364    1.398   .     S
C364   H232    1.085   .     S
C365   C366    1.529   .     S
C365   C377    1.525   .     S
C366   C367    1.397   .     D
C366   C371    1.392   .     S
C367   C368    1.383   .     S
C367   H233    1.084   .     S
C368   C369    1.397   .     D
C368   H234    1.084   .     S
C369   C370    1.395   .     S
C370   C371    1.386   .     D
C370   H235    1.085   .     S
C371   H236    1.084   .     S
C372   C373    1.385   .     D
C372   C377    1.395   .     S
C372   H237    1.085   .     S
C373   C374    1.395   .     S
C373   H238    1.085   .     S
C374   C375    1.391   .     D
C374   C378    1.527   .     S
C375   C376    1.387   .     S
C375   H239    1.083   .     S
C376   C377    1.391   .     D
C376   H240    1.083   .     S
C378   C382    1.523   .     S
C378   C385    1.530   .     S
C378   C396    1.529   .     S
C379   C380    1.399   .     S
C379   C384    1.398   .     D
C379   C441    1.474   .     S
C380   C381    1.385   .     D
C380   H241    1.084   .     S
C381   C382    1.394   .     S
C381   H242    1.085   .     S
C382   C383    1.393   .     D
C383   C384    1.384   .     S
C383   H243    1.084   .     S
C384   H244    1.084   .     S
C385   C386    1.393   .     D
C385   C390    1.396   .     S
C386   C387    1.385   .     S
C386   H245    1.083   .     S
C387   C388    1.396   .     D
C387   H246    1.084   .     S
C388   C389    1.398   .     S
C389   C390    1.384   .     D
C389   H247    1.084   .     S
C390   H248    1.085   .     S
C391   C392    1.387   .     D
C391   C396    1.392   .     S
C391   H249    1.084   .     S
C392   C393    1.396   .     S
C392   H250    1.084   .     S
C393   C394    1.397   .     D
C394   C395    1.382   .     S
C394   H251    1.084   .     S
C395   C396    1.397   .     D
C395   H252    1.084   .     S
C397   C398    1.387   .     S
C397   C402    1.388   .     D
C397   H354    1.084   .     S
C398   C399    1.389   .     D
C398   H253    1.084   .     S
C399   C400    1.392   .     S
C399   H254    1.084   .     S
C400   C401    1.396   .     D
C400   C409    1.527   .     S
C401   C402    1.386   .     S
C401   H255    1.085   .     S
C402   H256    1.085   .     S
C403   C404    1.393   .     S
C403   C408    1.388   .     D
C403   H257    1.084   .     S
C404   C405    1.395   .     D
C404   C409    1.528   .     S
C405   C406    1.387   .     S
C405   H258    1.084   .     S
C406   C407    1.388   .     D
C406   H259    1.084   .     S
C407   C408    1.387   .     S
C407   H340    1.084   .     S
C408   H260    1.084   .     S
C409   C410    1.528   .     S
C409   C421    1.527   .     S
C410   C411    1.394   .     D
C410   C415    1.395   .     S
C411   C412    1.385   .     S
C411   H261    1.084   .     S
C412   C413    1.396   .     D
C412   H262    1.084   .     S
C413   C414    1.398   .     S
C413   C525    1.473   .     S
C414   C415    1.384   .     D
C414   H263    1.084   .     S
C415   H264    1.084   .     S
C416   C417    1.389   .     S
C416   C421    1.390   .     D
C416   H265    1.084   .     S
C417   C418    1.391   .     D
C417   H266    1.084   .     S
C418   C419    1.395   .     S
C418   C422    1.528   .     S
C419   C420    1.382   .     D
C419   H267    1.084   .     S
C420   C421    1.396   .     S
C420   H268    1.085   .     S
C422   C426    1.526   .     S
C422   C429    1.526   .     S
C422   C440    1.527   .     S
C423   C45     1.473   1_556 S
C423   C424    1.396   1_556 S
C423   C428    1.397   .     D
C424   C423    1.396   1_554 S
C424   C425    1.386   1_554 D
C424   H269    1.084   .     S
C425   C424    1.386   1_556 D
C425   C426    1.393   .     S
C425   H270    1.084   .     S
C426   C427    1.395   .     D
C427   C428    1.384   .     S
C427   H271    1.085   .     S
C428   H272    1.085   .     S
C429   C430    1.395   .     S
C429   C434    1.394   .     D
C430   C431    1.387   .     D
C430   H273    1.084   .     S
C431   C432    1.388   .     S
C431   H274    1.084   .     S
C432   C433    1.387   1_556 D
C432   H348    1.084   .     S
C433   C432    1.387   1_554 D
C433   C434    1.388   1_554 S
C433   H275    1.084   .     S
C434   C433    1.388   1_556 S
C434   H276    1.084   1_556 S
C435   C436    1.385   .     D
C435   C440    1.394   1_554 S
C435   H277    1.085   .     S
C436   C437    1.398   .     S
C436   H278    1.084   .     S
C437   C438    1.397   1_554 D
C438   C437    1.397   1_556 D
C438   C439    1.383   .     S
C438   H279    1.084   .     S
C439   C440    1.394   .     D
C439   H280    1.084   .     S
C440   C435    1.394   1_556 S
H276   C434    1.084   1_554 S
C441   C442    1.400   .     S
C441   C446    1.397   .     D
C442   C443    1.383   .     D
C442   H281    1.084   .     S
C443   C444    1.397   .     S
C443   H282    1.084   .     S
C444   C445    1.392   .     D
C444   C453    1.527   .     S
C445   C446    1.387   .     S
C445   H283    1.083   .     S
C446   H284    1.084   .     S
C447   C448    1.397   .     D
C447   C452    1.385   .     S
C447   H285    1.085   .     S
C448   C449    1.393   .     S
C448   C453    1.530   .     S
C449   C450    1.384   .     D
C449   H286    1.084   .     S
C450   C451    1.396   .     S
C450   H287    1.084   .     S
C451   C452    1.398   .     D
C451   C520    1.473   .     S
C452   H288    1.085   .     S
C453   C454    1.530   .     S
C453   C465    1.528   .     S
C454   C455    1.396   .     D
C454   C459    1.392   .     S
C455   C456    1.386   .     S
C455   H289    1.085   .     S
C456   C457    1.388   .     D
C456   H290    1.084   .     S
C457   C458    1.387   .     S
C457   H341    1.084   1_655 S
C458   C459    1.389   .     D
C458   H291    1.084   .     S
C459   H292    1.084   .     S
C460   C461    1.385   .     S
C460   C465    1.395   .     D
C460   H293    1.085   .     S
C461   C462    1.394   .     D
C461   H294    1.084   .     S
C462   C463    1.392   .     S
C462   C466    1.525   .     S
C463   C464    1.388   .     D
C463   H295    1.084   .     S
C464   C465    1.392   .     S
C464   H296    1.084   .     S
C466   C470    1.525   .     S
C466   C473    1.530   .     S
C466   C484    1.531   .     S
C467   C133    1.473   1_556 S
C467   C468    1.396   .     S
C467   C472    1.398   .     D
C468   C469    1.385   .     D
C468   H297    1.084   1_556 S
C469   C470    1.393   .     S
C469   H298    1.084   .     S
C470   C471    1.395   .     D
C471   C472    1.384   .     S
C471   H299    1.084   .     S
C472   H300    1.084   .     S
C473   C474    1.396   .     D
C473   C478    1.393   .     S
C474   C475    1.384   .     S
C474   H301    1.085   .     S
C475   C476    1.398   .     D
C475   H302    1.084   .     S
C476   C231    1.473   1_556 S
C476   C477    1.397   1_556 S
C477   C476    1.397   1_554 S
C477   C478    1.386   1_554 D
C477   H303    1.084   .     S
C478   C477    1.386   1_556 D
C478   H304    1.084   1_556 S
C479   C480    1.387   .     D
C479   C484    1.396   1_554 S
C479   H305    1.084   .     S
C480   C481    1.388   .     S
C480   H306    1.084   .     S
C481   C482    1.387   1_554 D
C481   H349    1.084   .     S
C482   C481    1.387   1_556 D
C482   C483    1.388   .     S
C482   H307    1.084   .     S
C483   C484    1.393   .     D
C483   H308    1.084   .     S
C484   C479    1.396   1_556 S
H297   C468    1.084   1_554 S
H304   C478    1.084   1_554 S
C485   C115    1.473   1_565 S
C485   C486    1.399   .     S
C485   C490    1.397   .     D
C486   C487    1.383   .     D
C486   H309    1.084   .     S
C487   C488    1.395   .     S
C487   H310    1.084   .     S
C488   C489    1.393   .     D
C488   C497    1.525   .     S
C489   C490    1.386   .     S
C489   H311    1.084   .     S
C490   H312    1.084   .     S
C491   C492    1.395   .     S
C491   C496    1.385   .     D
C491   H313    1.085   .     S
C492   C493    1.394   .     D
C492   C497    1.528   .     S
C493   C494    1.384   .     S
C493   H314    1.084   .     S
C494   C495    1.397   .     D
C494   H315    1.084   .     S
C495   C496    1.398   .     S
C496   H316    1.084   .     S
C497   C498    1.529   .     S
C497   C509    1.528   .     S
C498   C499    1.395   .     D
C498   C503    1.393   .     S
C499   C500    1.387   .     S
C499   H317    1.085   .     S
C500   C501    1.388   .     D
C500   H318    1.084   .     S
C501   C502    1.387   .     S
C501   H342    1.084   .     S
C502   C503    1.388   .     D
C502   H319    1.085   .     S
C503   H320    1.084   .     S
C504   C505    1.386   .     D
C504   C509    1.394   .     S
C504   H321    1.084   .     S
C505   C506    1.392   .     S
C505   H322    1.084   .     S
C506   C507    1.395   .     D
C506   C510    1.526   .     S
C507   C508    1.386   .     S
C507   H323    1.085   .     S
C508   C509    1.393   .     D
C508   H324    1.084   .     S
C510   C514    1.526   .     S
C510   C517    1.531   .     S
C510   C528    1.531   .     S
C511   C309    1.474   1_565 S
C511   C512    1.396   .     S
C511   C516    1.400   .     D
C512   C513    1.388   .     D
C512   H325    1.084   .     S
C513   C514    1.391   .     S
C513   H326    1.084   .     S
C514   C515    1.397   .     D
C515   C516    1.382   .     S
C515   H327    1.085   .     S
C516   H328    1.084   .     S
C517   C518    1.397   .     D
C517   C522    1.392   .     S
C518   C519    1.383   .     S
C518   H329    1.085   .     S
C519   C520    1.398   .     D
C519   H330    1.085   .     S
C520   C521    1.396   .     S
C521   C522    1.386   .     D
C521   H331    1.084   .     S
C522   H332    1.084   .     S
C523   C524    1.385   .     D
C523   C528    1.397   .     S
C523   H333    1.085   .     S
C524   C525    1.397   .     S
C524   H334    1.085   .     S
C525   C526    1.395   .     D
C526   C527    1.385   .     S
C526   H335    1.084   .     S
C527   C528    1.393   .     D
C527   H336    1.083   .     S
H337   C27     1.084   1_565 S
H339   C265    1.084   1_565 S
H341   C457    1.084   1_455 S
H347   C291    1.084   1_564 S
H353   C325    1.084   1_455 S
