data_C_acs_dftb_defect_8_cluster_opt
_audit_creation_date              2023-11-14
_audit_creation_method            'Materials Studio'
_symmetry_space_group_name_H-M    'P1'
_symmetry_Int_Tables_number       1
_symmetry_cell_setting            triclinic
loop_
_symmetry_equiv_pos_as_xyz
  x,y,z
_cell_length_a                    71.0224
_cell_length_b                    71.0627
_cell_length_c                    39.5731
_cell_angle_alpha                 89.8506
_cell_angle_beta                  90.0762
_cell_angle_gamma                 119.7030
loop_
_atom_site_label
_atom_site_type_symbol
_atom_site_fract_x
_atom_site_fract_y
_atom_site_fract_z
_atom_site_U_iso_or_equiv
_atom_site_adp_type
_atom_site_occupancy
C1     C     0.13387   0.01415   0.25684   0.00000  Uiso   1.00
C2     C     0.15191   0.03191   0.24274   0.00000  Uiso   1.00
C3     C     0.16297   0.05363   0.25502   0.00000  Uiso   1.00
C4     C     0.15799   0.06153   0.28336   0.00000  Uiso   1.00
C5     C     0.14006   0.04411   0.29748   0.00000  Uiso   1.00
C6     C     0.12900   0.02234   0.28544   0.00000  Uiso   1.00
H1     H     0.15794   0.02849   0.22007   0.00000  Uiso   1.00
H2     H     0.17680   0.06559   0.24106   0.00000  Uiso   1.00
H3     H     0.13418   0.04793   0.32011   0.00000  Uiso   1.00
H4     H     0.11527   0.01066   0.29964   0.00000  Uiso   1.00
C7     C     0.13697   0.08861   0.27068   0.00000  Uiso   1.00
C8     C     0.15796   0.09782   0.28245   0.00000  Uiso   1.00
C9     C     0.16638   0.11991   0.27980   0.00000  Uiso   1.00
C10    C     0.15559   0.13101   0.26772   0.00000  Uiso   1.00
C11    C     0.13433   0.12191   0.25606   0.00000  Uiso   1.00
C12    C     0.12610   0.09961   0.25849   0.00000  Uiso   1.00
C13    C     0.16989   0.08567   0.29656   0.00000  Uiso   1.00
C14    C     0.19414   0.09784   0.28375   0.00000  Uiso   1.00
C15    C     0.21238   0.10113   0.30106   0.00000  Uiso   1.00
C16    C     0.23421   0.11200   0.28912   0.00000  Uiso   1.00
C17    C     0.24167   0.12155   0.25755   0.00000  Uiso   1.00
C18    C     0.22310   0.11805   0.24028   0.00000  Uiso   1.00
C19    C     0.20131   0.10717   0.25239   0.00000  Uiso   1.00
C20    C     0.16646   0.09955   0.35708   0.00000  Uiso   1.00
C21    C     0.16608   0.09953   0.39338   0.00000  Uiso   1.00
C22    C     0.16849   0.08551   0.41445   0.00000  Uiso   1.00
C23    C     0.17131   0.07149   0.39407   0.00000  Uiso   1.00
C24    C     0.17177   0.07155   0.35779   0.00000  Uiso   1.00
C25    C     0.16931   0.08556   0.33671   0.00000  Uiso   1.00
C26    C     0.16849   0.08559   0.45462   0.00000  Uiso   1.00
C27    C     0.13241   0.01392   0.49415   0.00000  Uiso   1.00
C28    C     0.15136   0.03128   0.50686   0.00000  Uiso   1.00
C29    C     0.16241   0.05306   0.49470   0.00000  Uiso   1.00
C30    C     0.15657   0.06141   0.46775   0.00000  Uiso   1.00
C31    C     0.13793   0.04433   0.45473   0.00000  Uiso   1.00
C32    C     0.12678   0.02253   0.46681   0.00000  Uiso   1.00
C33    C     0.15631   0.09762   0.46803   0.00000  Uiso   1.00
C34    C     0.16464   0.11970   0.47040   0.00000  Uiso   1.00
C35    C     0.15374   0.13074   0.48217   0.00000  Uiso   1.00
C36    C     0.13246   0.12157   0.49377   0.00000  Uiso   1.00
C37    C     0.12427   0.09929   0.49136   0.00000  Uiso   1.00
C38    C     0.13526   0.08835   0.47952   0.00000  Uiso   1.00
C39    C     0.19958   0.10680   0.49953   0.00000  Uiso   1.00
C40    C     0.22129   0.11764   0.51194   0.00000  Uiso   1.00
C41    C     0.24000   0.12146   0.49481   0.00000  Uiso   1.00
C42    C     0.23276   0.11238   0.46297   0.00000  Uiso   1.00
C43    C     0.21100   0.10154   0.45072   0.00000  Uiso   1.00
C44    C     0.19262   0.09784   0.46796   0.00000  Uiso   1.00
H5     H     0.12824   0.07113   0.27116   0.00000  Uiso   1.00
H6     H     0.18299   0.12936   0.28812   0.00000  Uiso   1.00
H7     H     0.16456   0.14840   0.26748   0.00000  Uiso   1.00
H8     H     0.10961   0.08990   0.25028   0.00000  Uiso   1.00
H9     H     0.20927   0.09459   0.32637   0.00000  Uiso   1.00
H10    H     0.24660   0.11318   0.30600   0.00000  Uiso   1.00
H11    H     0.22585   0.12443   0.21502   0.00000  Uiso   1.00
H12    H     0.18862   0.10583   0.23582   0.00000  Uiso   1.00
H13    H     0.16431   0.11158   0.34378   0.00000  Uiso   1.00
H14    H     0.16371   0.11158   0.40606   0.00000  Uiso   1.00
H15    H     0.17343   0.05946   0.40748   0.00000  Uiso   1.00
H16    H     0.17419   0.05955   0.34504   0.00000  Uiso   1.00
H17    H     0.15813   0.02747   0.52834   0.00000  Uiso   1.00
H18    H     0.17696   0.06468   0.50754   0.00000  Uiso   1.00
H19    H     0.13143   0.04850   0.43312   0.00000  Uiso   1.00
H20    H     0.11232   0.01119   0.45371   0.00000  Uiso   1.00
H21    H     0.18127   0.12920   0.46224   0.00000  Uiso   1.00
H22    H     0.16266   0.14813   0.48235   0.00000  Uiso   1.00
H23    H     0.10776   0.08954   0.49946   0.00000  Uiso   1.00
H24    H     0.12655   0.07088   0.47925   0.00000  Uiso   1.00
H25    H     0.18674   0.10511   0.51604   0.00000  Uiso   1.00
H26    H     0.22390   0.12370   0.53735   0.00000  Uiso   1.00
H27    H     0.24526   0.11387   0.44611   0.00000  Uiso   1.00
H28    H     0.20808   0.09536   0.42524   0.00000  Uiso   1.00
C45    C     0.12076   0.24093   0.00722   0.00000  Uiso   1.00
C46    C     0.10158   0.22365   0.99495   0.00000  Uiso   1.00
C47    C     0.09062   0.20185   0.00705   0.00000  Uiso   1.00
C48    C     0.09677   0.19341   0.03348   0.00000  Uiso   1.00
C49    C     0.11558   0.21045   0.04618   0.00000  Uiso   1.00
C50    C     0.12665   0.23226   0.03417   0.00000  Uiso   1.00
H29    H     0.09458   0.22753   0.97387   0.00000  Uiso   1.00
H30    H     0.07588   0.19029   0.99456   0.00000  Uiso   1.00
H31    H     0.12230   0.20621   0.06743   0.00000  Uiso   1.00
H32    H     0.14128   0.24354   0.04692   0.00000  Uiso   1.00
C51    C     0.11793   0.16647   0.02019   0.00000  Uiso   1.00
C52    C     0.09707   0.15720   0.03254   0.00000  Uiso   1.00
C53    C     0.08882   0.13512   0.03053   0.00000  Uiso   1.00
C54    C     0.09968   0.12407   0.01859   0.00000  Uiso   1.00
C55    C     0.12081   0.13325   0.00634   0.00000  Uiso   1.00
C56    C     0.12886   0.15553   0.00813   0.00000  Uiso   1.00
C57    C     0.08503   0.16922   0.04657   0.00000  Uiso   1.00
C58    C     0.06076   0.15690   0.03385   0.00000  Uiso   1.00
C59    C     0.04240   0.15265   0.05168   0.00000  Uiso   1.00
C60    C     0.02057   0.14172   0.03977   0.00000  Uiso   1.00
C61    C     0.01322   0.13309   0.00771   0.00000  Uiso   1.00
C62    C     0.03190   0.13742   0.99001   0.00000  Uiso   1.00
C63    C     0.05369   0.14832   0.00210   0.00000  Uiso   1.00
C64    C     0.08897   0.15573   0.10734   0.00000  Uiso   1.00
C65    C     0.08937   0.15587   0.14365   0.00000  Uiso   1.00
C66    C     0.08647   0.16964   0.16446   0.00000  Uiso   1.00
C67    C     0.08325   0.18336   0.14382   0.00000  Uiso   1.00
C68    C     0.08284   0.18321   0.10754   0.00000  Uiso   1.00
C69    C     0.08566   0.16937   0.08672   0.00000  Uiso   1.00
C70    C     0.08647   0.16959   0.20463   0.00000  Uiso   1.00
C71    C     0.12246   0.24125   0.24370   0.00000  Uiso   1.00
C72    C     0.10423   0.22360   0.25763   0.00000  Uiso   1.00
C73    C     0.09321   0.20182   0.24560   0.00000  Uiso   1.00
C74    C     0.09837   0.19376   0.21763   0.00000  Uiso   1.00
C75    C     0.11639   0.21110   0.20357   0.00000  Uiso   1.00
C76    C     0.12746   0.23291   0.21541   0.00000  Uiso   1.00
C77    C     0.09869   0.15757   0.21804   0.00000  Uiso   1.00
C78    C     0.09050   0.13549   0.21999   0.00000  Uiso   1.00
C79    C     0.10147   0.12446   0.23157   0.00000  Uiso   1.00
C80    C     0.12268   0.13363   0.24351   0.00000  Uiso   1.00
C81    C     0.13075   0.15591   0.24147   0.00000  Uiso   1.00
C82    C     0.11970   0.16685   0.22975   0.00000  Uiso   1.00
C83    C     0.05531   0.14771   0.24922   0.00000  Uiso   1.00
C84    C     0.03358   0.13665   0.26153   0.00000  Uiso   1.00
C85    C     0.01491   0.13324   0.24463   0.00000  Uiso   1.00
C86    C     0.02222   0.14298   0.21314   0.00000  Uiso   1.00
C87    C     0.04400   0.15399   0.20097   0.00000  Uiso   1.00
C88    C     0.06233   0.15725   0.21796   0.00000  Uiso   1.00
H33    H     0.12654   0.18395   0.02003   0.00000  Uiso   1.00
H34    H     0.07232   0.12563   0.03931   0.00000  Uiso   1.00
H35    H     0.09086   0.10668   0.01893   0.00000  Uiso   1.00
H36    H     0.14524   0.16528   0.99941   0.00000  Uiso   1.00
H37    H     0.04542   0.15844   0.07738   0.00000  Uiso   1.00
H38    H     0.00808   0.13975   0.05706   0.00000  Uiso   1.00
H39    H     0.02923   0.13178   0.96436   0.00000  Uiso   1.00
H40    H     0.06649   0.15042   0.98516   0.00000  Uiso   1.00
H41    H     0.09150   0.14390   0.09429   0.00000  Uiso   1.00
H42    H     0.09213   0.14411   0.15655   0.00000  Uiso   1.00
H43    H     0.08077   0.19521   0.15697   0.00000  Uiso   1.00
H44    H     0.08010   0.19496   0.09450   0.00000  Uiso   1.00
H45    H     0.09804   0.22715   0.28001   0.00000  Uiso   1.00
H46    H     0.07925   0.18994   0.25942   0.00000  Uiso   1.00
H47    H     0.12236   0.20715   0.18117   0.00000  Uiso   1.00
H48    H     0.14133   0.24450   0.20136   0.00000  Uiso   1.00
H49    H     0.07393   0.12599   0.21156   0.00000  Uiso   1.00
H50    H     0.09266   0.10706   0.23135   0.00000  Uiso   1.00
H51    H     0.14720   0.16566   0.24983   0.00000  Uiso   1.00
H52    H     0.12829   0.18433   0.22973   0.00000  Uiso   1.00
H53    H     0.06810   0.14900   0.26552   0.00000  Uiso   1.00
H54    H     0.03091   0.13009   0.28666   0.00000  Uiso   1.00
H55    H     0.00976   0.14188   0.19651   0.00000  Uiso   1.00
H56    H     0.04695   0.16065   0.17576   0.00000  Uiso   1.00
C89    C     0.38383   0.01406   0.25681   0.00000  Uiso   1.00
C90    C     0.40187   0.03184   0.24272   0.00000  Uiso   1.00
C91    C     0.41289   0.05356   0.25500   0.00000  Uiso   1.00
C92    C     0.40787   0.06145   0.28334   0.00000  Uiso   1.00
C93    C     0.38994   0.04401   0.29741   0.00000  Uiso   1.00
C94    C     0.37892   0.02224   0.28537   0.00000  Uiso   1.00
H57    H     0.40792   0.02843   0.22007   0.00000  Uiso   1.00
H58    H     0.42672   0.06553   0.24107   0.00000  Uiso   1.00
H59    H     0.38404   0.04782   0.32003   0.00000  Uiso   1.00
H60    H     0.36519   0.01055   0.29955   0.00000  Uiso   1.00
C95    C     0.38690   0.08859   0.27071   0.00000  Uiso   1.00
C96    C     0.40788   0.09776   0.28249   0.00000  Uiso   1.00
C97    C     0.41634   0.11986   0.27988   0.00000  Uiso   1.00
C98    C     0.40557   0.13101   0.26785   0.00000  Uiso   1.00
C99    C     0.38432   0.12194   0.25618   0.00000  Uiso   1.00
C100   C     0.37606   0.09964   0.25856   0.00000  Uiso   1.00
C101   C     0.41977   0.08557   0.29656   0.00000  Uiso   1.00
C102   C     0.44403   0.09774   0.28375   0.00000  Uiso   1.00
C103   C     0.46226   0.10101   0.30106   0.00000  Uiso   1.00
C104   C     0.48409   0.11187   0.28910   0.00000  Uiso   1.00
C105   C     0.49155   0.12140   0.25753   0.00000  Uiso   1.00
C106   C     0.47298   0.11792   0.24027   0.00000  Uiso   1.00
C107   C     0.45120   0.10707   0.25239   0.00000  Uiso   1.00
C108   C     0.41635   0.09945   0.35709   0.00000  Uiso   1.00
C109   C     0.41599   0.09944   0.39339   0.00000  Uiso   1.00
C110   C     0.41841   0.08541   0.41445   0.00000  Uiso   1.00
C111   C     0.42122   0.07139   0.39407   0.00000  Uiso   1.00
C112   C     0.42166   0.07145   0.35779   0.00000  Uiso   1.00
C113   C     0.41920   0.08546   0.33671   0.00000  Uiso   1.00
C114   C     0.41842   0.08551   0.45463   0.00000  Uiso   1.00
C115   C     0.38246   0.01382   0.49410   0.00000  Uiso   1.00
C116   C     0.40140   0.03119   0.50681   0.00000  Uiso   1.00
C117   C     0.41241   0.05298   0.49467   0.00000  Uiso   1.00
C118   C     0.40654   0.06132   0.46776   0.00000  Uiso   1.00
C119   C     0.38789   0.04422   0.45475   0.00000  Uiso   1.00
C120   C     0.37678   0.02243   0.46680   0.00000  Uiso   1.00
C121   C     0.40625   0.09753   0.46807   0.00000  Uiso   1.00
C122   C     0.41458   0.11961   0.47046   0.00000  Uiso   1.00
C123   C     0.40369   0.13065   0.48227   0.00000  Uiso   1.00
C124   C     0.38242   0.12148   0.49388   0.00000  Uiso   1.00
C125   C     0.37423   0.09920   0.49147   0.00000  Uiso   1.00
C126   C     0.38520   0.08826   0.47960   0.00000  Uiso   1.00
C127   C     0.44953   0.10674   0.49950   0.00000  Uiso   1.00
C128   C     0.47125   0.11760   0.51188   0.00000  Uiso   1.00
C129   C     0.48996   0.12143   0.49472   0.00000  Uiso   1.00
C130   C     0.48270   0.11233   0.46289   0.00000  Uiso   1.00
C131   C     0.46094   0.10148   0.45067   0.00000  Uiso   1.00
C132   C     0.44256   0.09776   0.46794   0.00000  Uiso   1.00
H61    H     0.37814   0.07112   0.27114   0.00000  Uiso   1.00
H62    H     0.43294   0.12928   0.28821   0.00000  Uiso   1.00
H63    H     0.41456   0.14840   0.26765   0.00000  Uiso   1.00
H64    H     0.35956   0.08996   0.25034   0.00000  Uiso   1.00
H65    H     0.45915   0.09448   0.32637   0.00000  Uiso   1.00
H66    H     0.49648   0.11304   0.30598   0.00000  Uiso   1.00
H67    H     0.47574   0.12429   0.21501   0.00000  Uiso   1.00
H68    H     0.43851   0.10573   0.23582   0.00000  Uiso   1.00
H69    H     0.41420   0.11148   0.34379   0.00000  Uiso   1.00
H70    H     0.41362   0.11148   0.40608   0.00000  Uiso   1.00
H71    H     0.42334   0.05936   0.40748   0.00000  Uiso   1.00
H72    H     0.42408   0.05945   0.34503   0.00000  Uiso   1.00
H73    H     0.40819   0.02739   0.52827   0.00000  Uiso   1.00
H74    H     0.42696   0.06461   0.50750   0.00000  Uiso   1.00
H75    H     0.38137   0.04839   0.43316   0.00000  Uiso   1.00
H76    H     0.36233   0.01107   0.45371   0.00000  Uiso   1.00
H77    H     0.43121   0.12910   0.46229   0.00000  Uiso   1.00
H78    H     0.41262   0.14804   0.48245   0.00000  Uiso   1.00
H79    H     0.35771   0.08945   0.49958   0.00000  Uiso   1.00
H80    H     0.37649   0.07079   0.47932   0.00000  Uiso   1.00
H81    H     0.43670   0.10504   0.51602   0.00000  Uiso   1.00
H82    H     0.47387   0.12366   0.53728   0.00000  Uiso   1.00
H83    H     0.49520   0.11383   0.44601   0.00000  Uiso   1.00
H84    H     0.45800   0.09529   0.42520   0.00000  Uiso   1.00
C133   C     0.37026   0.24090   0.00763   0.00000  Uiso   1.00
C134   C     0.35113   0.22356   0.99534   0.00000  Uiso   1.00
C135   C     0.34032   0.20174   0.00731   0.00000  Uiso   1.00
C136   C     0.34660   0.19331   0.03361   0.00000  Uiso   1.00
C137   C     0.36538   0.21040   0.04629   0.00000  Uiso   1.00
C138   C     0.37629   0.23224   0.03442   0.00000  Uiso   1.00
H85    H     0.34404   0.22743   0.97436   0.00000  Uiso   1.00
H86    H     0.32560   0.19013   0.99484   0.00000  Uiso   1.00
H87    H     0.37219   0.20618   0.06743   0.00000  Uiso   1.00
H88    H     0.39091   0.24356   0.04716   0.00000  Uiso   1.00
C139   C     0.36789   0.16639   0.02026   0.00000  Uiso   1.00
C140   C     0.34704   0.15712   0.03265   0.00000  Uiso   1.00
C141   C     0.33880   0.13504   0.03069   0.00000  Uiso   1.00
C142   C     0.34965   0.12399   0.01876   0.00000  Uiso   1.00
C143   C     0.37077   0.13316   0.00647   0.00000  Uiso   1.00
C144   C     0.37882   0.15545   0.00822   0.00000  Uiso   1.00
C145   C     0.33497   0.16912   0.04667   0.00000  Uiso   1.00
C146   C     0.31070   0.15675   0.03397   0.00000  Uiso   1.00
C147   C     0.29233   0.15251   0.05178   0.00000  Uiso   1.00
C148   C     0.27050   0.14159   0.03985   0.00000  Uiso   1.00
C149   C     0.26316   0.13298   0.00779   0.00000  Uiso   1.00
C150   C     0.28184   0.13724   0.99013   0.00000  Uiso   1.00
C151   C     0.30362   0.14813   0.00224   0.00000  Uiso   1.00
C152   C     0.33894   0.15568   0.10748   0.00000  Uiso   1.00
C153   C     0.33934   0.15585   0.14379   0.00000  Uiso   1.00
C154   C     0.33644   0.16963   0.16457   0.00000  Uiso   1.00
C155   C     0.33322   0.18333   0.14390   0.00000  Uiso   1.00
C156   C     0.33279   0.18314   0.10761   0.00000  Uiso   1.00
C157   C     0.33561   0.16930   0.08683   0.00000  Uiso   1.00
C158   C     0.33643   0.16959   0.20473   0.00000  Uiso   1.00
C159   C     0.37193   0.24127   0.24378   0.00000  Uiso   1.00
C160   C     0.35370   0.22356   0.25759   0.00000  Uiso   1.00
C161   C     0.34284   0.20178   0.24558   0.00000  Uiso   1.00
C162   C     0.34819   0.19377   0.21774   0.00000  Uiso   1.00
C163   C     0.36619   0.21117   0.20377   0.00000  Uiso   1.00
C164   C     0.37709   0.23299   0.21558   0.00000  Uiso   1.00
C165   C     0.34869   0.15763   0.21819   0.00000  Uiso   1.00
C166   C     0.34051   0.13555   0.22014   0.00000  Uiso   1.00
C167   C     0.35148   0.12452   0.23172   0.00000  Uiso   1.00
C168   C     0.37268   0.13369   0.24366   0.00000  Uiso   1.00
C169   C     0.38074   0.15597   0.24166   0.00000  Uiso   1.00
C170   C     0.36969   0.16691   0.22994   0.00000  Uiso   1.00
C171   C     0.30525   0.14764   0.24927   0.00000  Uiso   1.00
C172   C     0.28351   0.13659   0.26156   0.00000  Uiso   1.00
C173   C     0.26486   0.13321   0.24466   0.00000  Uiso   1.00
C174   C     0.27218   0.14295   0.21318   0.00000  Uiso   1.00
C175   C     0.29395   0.15395   0.20102   0.00000  Uiso   1.00
C176   C     0.31228   0.15721   0.21802   0.00000  Uiso   1.00
H89    H     0.37649   0.18387   0.02007   0.00000  Uiso   1.00
H90    H     0.32231   0.12556   0.03951   0.00000  Uiso   1.00
H91    H     0.34084   0.10660   0.01914   0.00000  Uiso   1.00
H92    H     0.39518   0.16519   0.99946   0.00000  Uiso   1.00
H93    H     0.29535   0.15833   0.07747   0.00000  Uiso   1.00
H94    H     0.25801   0.13966   0.05712   0.00000  Uiso   1.00
H95    H     0.27918   0.13157   0.96450   0.00000  Uiso   1.00
H96    H     0.31643   0.15021   0.98532   0.00000  Uiso   1.00
H97    H     0.34146   0.14383   0.09446   0.00000  Uiso   1.00
H98    H     0.34211   0.14410   0.15672   0.00000  Uiso   1.00
H99    H     0.33073   0.19518   0.15701   0.00000  Uiso   1.00
H100   H     0.33004   0.19487   0.09454   0.00000  Uiso   1.00
H101   H     0.34739   0.22707   0.27987   0.00000  Uiso   1.00
H102   H     0.32886   0.18985   0.25930   0.00000  Uiso   1.00
H103   H     0.37229   0.20727   0.18145   0.00000  Uiso   1.00
H104   H     0.39096   0.24462   0.20160   0.00000  Uiso   1.00
H105   H     0.32394   0.12605   0.21169   0.00000  Uiso   1.00
H106   H     0.34267   0.10713   0.23148   0.00000  Uiso   1.00
H107   H     0.39719   0.16573   0.25005   0.00000  Uiso   1.00
H108   H     0.37828   0.18439   0.22993   0.00000  Uiso   1.00
H109   H     0.31803   0.14893   0.26557   0.00000  Uiso   1.00
H110   H     0.28084   0.13001   0.28668   0.00000  Uiso   1.00
H111   H     0.25973   0.14188   0.19654   0.00000  Uiso   1.00
H112   H     0.29692   0.16064   0.17582   0.00000  Uiso   1.00
C177   C     0.13421   0.26440   0.25659   0.00000  Uiso   1.00
C178   C     0.15215   0.28224   0.24240   0.00000  Uiso   1.00
C179   C     0.16314   0.30394   0.25471   0.00000  Uiso   1.00
C180   C     0.15822   0.31177   0.28323   0.00000  Uiso   1.00
C181   C     0.14038   0.29427   0.29739   0.00000  Uiso   1.00
C182   C     0.12938   0.27251   0.28531   0.00000  Uiso   1.00
H113   H     0.15812   0.27888   0.21961   0.00000  Uiso   1.00
H114   H     0.17688   0.31600   0.24071   0.00000  Uiso   1.00
H115   H     0.13452   0.29802   0.32011   0.00000  Uiso   1.00
H116   H     0.11573   0.26077   0.29960   0.00000  Uiso   1.00
C183   C     0.13726   0.33871   0.26991   0.00000  Uiso   1.00
C184   C     0.15810   0.34795   0.28239   0.00000  Uiso   1.00
C185   C     0.16633   0.37005   0.28037   0.00000  Uiso   1.00
C186   C     0.15549   0.38110   0.26831   0.00000  Uiso   1.00
C187   C     0.13437   0.37196   0.25599   0.00000  Uiso   1.00
C188   C     0.12635   0.34967   0.25773   0.00000  Uiso   1.00
C189   C     0.16999   0.33583   0.29656   0.00000  Uiso   1.00
C190   C     0.19450   0.34820   0.28423   0.00000  Uiso   1.00
C191   C     0.21223   0.35052   0.30168   0.00000  Uiso   1.00
C192   C     0.23438   0.36178   0.29038   0.00000  Uiso   1.00
C193   C     0.24187   0.37222   0.26008   0.00000  Uiso   1.00
C194   C     0.22415   0.36980   0.24253   0.00000  Uiso   1.00
C195   C     0.20200   0.35849   0.25376   0.00000  Uiso   1.00
C196   C     0.16651   0.34965   0.35707   0.00000  Uiso   1.00
C197   C     0.16617   0.34964   0.39336   0.00000  Uiso   1.00
C198   C     0.16853   0.33558   0.41443   0.00000  Uiso   1.00
C199   C     0.17121   0.32147   0.39401   0.00000  Uiso   1.00
C200   C     0.17158   0.32151   0.35774   0.00000  Uiso   1.00
C201   C     0.16927   0.33561   0.33665   0.00000  Uiso   1.00
C202   C     0.16856   0.33569   0.45454   0.00000  Uiso   1.00
C203   C     0.13259   0.26408   0.49419   0.00000  Uiso   1.00
C204   C     0.15144   0.28149   0.50704   0.00000  Uiso   1.00
C205   C     0.16248   0.30326   0.49486   0.00000  Uiso   1.00
C206   C     0.15674   0.31157   0.46772   0.00000  Uiso   1.00
C207   C     0.13817   0.29441   0.45458   0.00000  Uiso   1.00
C208   C     0.12704   0.27263   0.46667   0.00000  Uiso   1.00
C209   C     0.15637   0.34768   0.46790   0.00000  Uiso   1.00
C210   C     0.16455   0.36976   0.46979   0.00000  Uiso   1.00
C211   C     0.15361   0.38076   0.48149   0.00000  Uiso   1.00
C212   C     0.13244   0.37157   0.49356   0.00000  Uiso   1.00
C213   C     0.12439   0.34929   0.49165   0.00000  Uiso   1.00
C214   C     0.13541   0.33838   0.47986   0.00000  Uiso   1.00
C215   C     0.19959   0.35751   0.49912   0.00000  Uiso   1.00
C216   C     0.22150   0.36875   0.51146   0.00000  Uiso   1.00
C217   C     0.23970   0.37211   0.49438   0.00000  Uiso   1.00
C218   C     0.23296   0.36268   0.46328   0.00000  Uiso   1.00
C219   C     0.21105   0.35145   0.45090   0.00000  Uiso   1.00
C220   C     0.19284   0.34814   0.46793   0.00000  Uiso   1.00
H117   H     0.12870   0.32124   0.26982   0.00000  Uiso   1.00
H118   H     0.18280   0.37953   0.28927   0.00000  Uiso   1.00
H119   H     0.16429   0.39849   0.26866   0.00000  Uiso   1.00
H120   H     0.10999   0.33994   0.24893   0.00000  Uiso   1.00
H121   H     0.20870   0.34308   0.32630   0.00000  Uiso   1.00
H122   H     0.24661   0.36228   0.30707   0.00000  Uiso   1.00
H123   H     0.22754   0.37724   0.21790   0.00000  Uiso   1.00
H124   H     0.18962   0.35786   0.23728   0.00000  Uiso   1.00
H125   H     0.16446   0.36175   0.34380   0.00000  Uiso   1.00
H126   H     0.16390   0.36175   0.40604   0.00000  Uiso   1.00
H127   H     0.17325   0.30939   0.40739   0.00000  Uiso   1.00
H128   H     0.17390   0.30944   0.34498   0.00000  Uiso   1.00
H129   H     0.15812   0.27774   0.52869   0.00000  Uiso   1.00
H130   H     0.17694   0.31495   0.50782   0.00000  Uiso   1.00
H131   H     0.13174   0.29854   0.43284   0.00000  Uiso   1.00
H132   H     0.11268   0.26124   0.45343   0.00000  Uiso   1.00
H133   H     0.18110   0.37928   0.46125   0.00000  Uiso   1.00
H134   H     0.16242   0.39816   0.48122   0.00000  Uiso   1.00
H135   H     0.10797   0.33952   0.50016   0.00000  Uiso   1.00
H136   H     0.12684   0.32091   0.48001   0.00000  Uiso   1.00
H137   H     0.18677   0.35606   0.51531   0.00000  Uiso   1.00
H138   H     0.22428   0.37534   0.53661   0.00000  Uiso   1.00
H139   H     0.24564   0.36401   0.44684   0.00000  Uiso   1.00
H140   H     0.20812   0.34484   0.42577   0.00000  Uiso   1.00
C221   C     0.12082   0.49092   0.00716   0.00000  Uiso   1.00
C222   C     0.10164   0.47364   0.99489   0.00000  Uiso   1.00
C223   C     0.09065   0.45185   0.00700   0.00000  Uiso   1.00
C224   C     0.09679   0.44340   0.03344   0.00000  Uiso   1.00
C225   C     0.11561   0.46043   0.04613   0.00000  Uiso   1.00
C226   C     0.12670   0.48224   0.03411   0.00000  Uiso   1.00
H141   H     0.09464   0.47753   0.97380   0.00000  Uiso   1.00
H142   H     0.07591   0.44029   0.99450   0.00000  Uiso   1.00
H143   H     0.12232   0.45618   0.06737   0.00000  Uiso   1.00
H144   H     0.14134   0.49351   0.04686   0.00000  Uiso   1.00
C227   C     0.11789   0.41645   0.01995   0.00000  Uiso   1.00
C228   C     0.09707   0.40718   0.03245   0.00000  Uiso   1.00
C229   C     0.08882   0.38510   0.03047   0.00000  Uiso   1.00
C230   C     0.09966   0.37406   0.01847   0.00000  Uiso   1.00
C231   C     0.12077   0.38323   0.00613   0.00000  Uiso   1.00
C232   C     0.12880   0.40551   0.00783   0.00000  Uiso   1.00
C233   C     0.08504   0.41921   0.04652   0.00000  Uiso   1.00
C234   C     0.06077   0.40689   0.03381   0.00000  Uiso   1.00
C235   C     0.04241   0.40263   0.05164   0.00000  Uiso   1.00
C236   C     0.02057   0.39170   0.03972   0.00000  Uiso   1.00
C237   C     0.01323   0.38309   0.00766   0.00000  Uiso   1.00
C238   C     0.03191   0.38740   0.98996   0.00000  Uiso   1.00
C239   C     0.05370   0.39830   0.00206   0.00000  Uiso   1.00
C240   C     0.08900   0.40573   0.10731   0.00000  Uiso   1.00
C241   C     0.08938   0.40587   0.14362   0.00000  Uiso   1.00
C242   C     0.08647   0.41964   0.16441   0.00000  Uiso   1.00
C243   C     0.08326   0.43335   0.14377   0.00000  Uiso   1.00
C244   C     0.08285   0.43320   0.10748   0.00000  Uiso   1.00
C245   C     0.08568   0.41937   0.08668   0.00000  Uiso   1.00
C246   C     0.08646   0.41958   0.20458   0.00000  Uiso   1.00
C247   C     0.12251   0.49124   0.24369   0.00000  Uiso   1.00
C248   C     0.10427   0.47360   0.25762   0.00000  Uiso   1.00
C249   C     0.09322   0.45182   0.24557   0.00000  Uiso   1.00
C250   C     0.09837   0.44376   0.21759   0.00000  Uiso   1.00
C251   C     0.11640   0.46109   0.20353   0.00000  Uiso   1.00
C252   C     0.12749   0.48290   0.21539   0.00000  Uiso   1.00
C253   C     0.09867   0.40757   0.21801   0.00000  Uiso   1.00
C254   C     0.09050   0.38549   0.21993   0.00000  Uiso   1.00
C255   C     0.10148   0.37446   0.23151   0.00000  Uiso   1.00
C256   C     0.12268   0.38365   0.24348   0.00000  Uiso   1.00
C257   C     0.13072   0.40593   0.24153   0.00000  Uiso   1.00
C258   C     0.11967   0.41686   0.22980   0.00000  Uiso   1.00
C259   C     0.05530   0.39773   0.24918   0.00000  Uiso   1.00
C260   C     0.03356   0.38669   0.26150   0.00000  Uiso   1.00
C261   C     0.01490   0.38327   0.24459   0.00000  Uiso   1.00
C262   C     0.02221   0.39301   0.21311   0.00000  Uiso   1.00
C263   C     0.04398   0.40401   0.20093   0.00000  Uiso   1.00
C264   C     0.06231   0.40726   0.21791   0.00000  Uiso   1.00
H145   H     0.12648   0.43393   0.01972   0.00000  Uiso   1.00
H146   H     0.07235   0.37561   0.03935   0.00000  Uiso   1.00
H147   H     0.09085   0.35667   0.01886   0.00000  Uiso   1.00
H148   H     0.14515   0.41526   0.99901   0.00000  Uiso   1.00
H149   H     0.04542   0.40842   0.07734   0.00000  Uiso   1.00
H150   H     0.00808   0.38973   0.05701   0.00000  Uiso   1.00
H151   H     0.02925   0.38176   0.96432   0.00000  Uiso   1.00
H152   H     0.06650   0.40040   0.98513   0.00000  Uiso   1.00
H153   H     0.09153   0.39390   0.09426   0.00000  Uiso   1.00
H154   H     0.09215   0.39411   0.15652   0.00000  Uiso   1.00
H155   H     0.08077   0.44519   0.15690   0.00000  Uiso   1.00
H156   H     0.08011   0.44495   0.09444   0.00000  Uiso   1.00
H157   H     0.09810   0.47715   0.28000   0.00000  Uiso   1.00
H158   H     0.07926   0.43995   0.25939   0.00000  Uiso   1.00
H159   H     0.12236   0.45714   0.18112   0.00000  Uiso   1.00
H160   H     0.14136   0.49448   0.20133   0.00000  Uiso   1.00
H161   H     0.07393   0.37598   0.21147   0.00000  Uiso   1.00
H162   H     0.09268   0.35707   0.23126   0.00000  Uiso   1.00
H163   H     0.14716   0.41569   0.24993   0.00000  Uiso   1.00
H164   H     0.12824   0.43433   0.22982   0.00000  Uiso   1.00
H165   H     0.06808   0.39902   0.26547   0.00000  Uiso   1.00
H166   H     0.03090   0.38012   0.28663   0.00000  Uiso   1.00
H167   H     0.00975   0.39192   0.19647   0.00000  Uiso   1.00
H168   H     0.04694   0.41068   0.17572   0.00000  Uiso   1.00
C265   C     0.38361   0.26442   0.25667   0.00000  Uiso   1.00
C266   C     0.40182   0.28214   0.24284   0.00000  Uiso   1.00
C267   C     0.41289   0.30383   0.25521   0.00000  Uiso   1.00
C268   C     0.40778   0.31176   0.28341   0.00000  Uiso   1.00
C269   C     0.38960   0.29440   0.29712   0.00000  Uiso   1.00
C270   C     0.37851   0.27267   0.28496   0.00000  Uiso   1.00
H169   H     0.40801   0.27868   0.22039   0.00000  Uiso   1.00
H170   H     0.42690   0.31574   0.24156   0.00000  Uiso   1.00
H171   H     0.38359   0.29826   0.31956   0.00000  Uiso   1.00
H172   H     0.36459   0.26103   0.29888   0.00000  Uiso   1.00
C271   C     0.38751   0.33959   0.27054   0.00000  Uiso   1.00
C272   C     0.40823   0.34843   0.28287   0.00000  Uiso   1.00
C273   C     0.41709   0.37051   0.28113   0.00000  Uiso   1.00
C274   C     0.40667   0.38212   0.26890   0.00000  Uiso   1.00
C275   C     0.38597   0.37328   0.25658   0.00000  Uiso   1.00
C276   C     0.37712   0.35123   0.25822   0.00000  Uiso   1.00
C277   C     0.41985   0.33579   0.29687   0.00000  Uiso   1.00
C278   C     0.44407   0.34782   0.28409   0.00000  Uiso   1.00
C279   C     0.46228   0.35083   0.30123   0.00000  Uiso   1.00
C280   C     0.48409   0.36166   0.28925   0.00000  Uiso   1.00
C281   C     0.49160   0.37146   0.25785   0.00000  Uiso   1.00
C282   C     0.47306   0.36821   0.24073   0.00000  Uiso   1.00
C283   C     0.45129   0.35735   0.25285   0.00000  Uiso   1.00
C284   C     0.41623   0.34944   0.35739   0.00000  Uiso   1.00
C285   C     0.41589   0.34940   0.39368   0.00000  Uiso   1.00
C286   C     0.41841   0.33542   0.41474   0.00000  Uiso   1.00
C287   C     0.42123   0.32142   0.39429   0.00000  Uiso   1.00
C288   C     0.42166   0.32151   0.35802   0.00000  Uiso   1.00
C289   C     0.41919   0.33553   0.33696   0.00000  Uiso   1.00
C290   C     0.41845   0.33565   0.45485   0.00000  Uiso   1.00
C291   C     0.38197   0.26409   0.49476   0.00000  Uiso   1.00
C292   C     0.40088   0.28145   0.50758   0.00000  Uiso   1.00
C293   C     0.41199   0.30322   0.49537   0.00000  Uiso   1.00
C294   C     0.40627   0.31157   0.46828   0.00000  Uiso   1.00
C295   C     0.38753   0.29452   0.45537   0.00000  Uiso   1.00
C296   C     0.37633   0.27275   0.46749   0.00000  Uiso   1.00
C297   C     0.40661   0.34827   0.46778   0.00000  Uiso   1.00
C298   C     0.41569   0.37034   0.47028   0.00000  Uiso   1.00
C299   C     0.40507   0.38200   0.48126   0.00000  Uiso   1.00
C300   C     0.38390   0.37321   0.49135   0.00000  Uiso   1.00
C301   C     0.37484   0.35117   0.48898   0.00000  Uiso   1.00
C302   C     0.38545   0.33949   0.47800   0.00000  Uiso   1.00
C303   C     0.44949   0.35636   0.49995   0.00000  Uiso   1.00
C304   C     0.47120   0.36714   0.51236   0.00000  Uiso   1.00
C305   C     0.48993   0.37122   0.49504   0.00000  Uiso   1.00
C306   C     0.48270   0.36237   0.46307   0.00000  Uiso   1.00
C307   C     0.46094   0.35158   0.45083   0.00000  Uiso   1.00
C308   C     0.44253   0.34769   0.46820   0.00000  Uiso   1.00
H173   H     0.37857   0.32216   0.27040   0.00000  Uiso   1.00
H174   H     0.43354   0.37957   0.29007   0.00000  Uiso   1.00
H175   H     0.41577   0.39956   0.26920   0.00000  Uiso   1.00
H176   H     0.36069   0.34200   0.24926   0.00000  Uiso   1.00
H177   H     0.45914   0.34411   0.32641   0.00000  Uiso   1.00
H178   H     0.49645   0.36262   0.30598   0.00000  Uiso   1.00
H179   H     0.47584   0.37479   0.21561   0.00000  Uiso   1.00
H180   H     0.43862   0.35622   0.23643   0.00000  Uiso   1.00
H181   H     0.41402   0.36144   0.34415   0.00000  Uiso   1.00
H182   H     0.41347   0.36140   0.40642   0.00000  Uiso   1.00
H183   H     0.42340   0.30942   0.40767   0.00000  Uiso   1.00
H184   H     0.42411   0.30954   0.34522   0.00000  Uiso   1.00
H185   H     0.40761   0.27764   0.52910   0.00000  Uiso   1.00
H186   H     0.42656   0.31480   0.50820   0.00000  Uiso   1.00
H187   H     0.38110   0.29870   0.43369   0.00000  Uiso   1.00
H188   H     0.36187   0.26142   0.45440   0.00000  Uiso   1.00
H189   H     0.43248   0.37934   0.46296   0.00000  Uiso   1.00
H190   H     0.41439   0.39942   0.48179   0.00000  Uiso   1.00
H191   H     0.35804   0.34198   0.49619   0.00000  Uiso   1.00
H192   H     0.37625   0.32208   0.47735   0.00000  Uiso   1.00
H193   H     0.43664   0.35452   0.51657   0.00000  Uiso   1.00
H194   H     0.47379   0.37297   0.53790   0.00000  Uiso   1.00
H195   H     0.49522   0.36406   0.44607   0.00000  Uiso   1.00
H196   H     0.45803   0.34564   0.42521   0.00000  Uiso   1.00
C309   C     0.13387   0.01415   0.75684   0.00000  Uiso   1.00
C310   C     0.15191   0.03191   0.74274   0.00000  Uiso   1.00
C311   C     0.16297   0.05363   0.75502   0.00000  Uiso   1.00
C312   C     0.15799   0.06153   0.78336   0.00000  Uiso   1.00
C313   C     0.14006   0.04411   0.79748   0.00000  Uiso   1.00
C314   C     0.12901   0.02234   0.78544   0.00000  Uiso   1.00
H197   H     0.15794   0.02849   0.72007   0.00000  Uiso   1.00
H198   H     0.17680   0.06559   0.74106   0.00000  Uiso   1.00
H199   H     0.13418   0.04793   0.82011   0.00000  Uiso   1.00
H200   H     0.11527   0.01066   0.79964   0.00000  Uiso   1.00
C315   C     0.13697   0.08861   0.77068   0.00000  Uiso   1.00
C316   C     0.15796   0.09782   0.78245   0.00000  Uiso   1.00
C317   C     0.16638   0.11991   0.77980   0.00000  Uiso   1.00
C318   C     0.15559   0.13101   0.76772   0.00000  Uiso   1.00
C319   C     0.13433   0.12191   0.75606   0.00000  Uiso   1.00
C320   C     0.12610   0.09961   0.75849   0.00000  Uiso   1.00
C321   C     0.16989   0.08567   0.79656   0.00000  Uiso   1.00
C322   C     0.19414   0.09784   0.78375   0.00000  Uiso   1.00
C323   C     0.21238   0.10113   0.80106   0.00000  Uiso   1.00
C324   C     0.23421   0.11200   0.78912   0.00000  Uiso   1.00
C325   C     0.24167   0.12155   0.75755   0.00000  Uiso   1.00
C326   C     0.22310   0.11805   0.74028   0.00000  Uiso   1.00
C327   C     0.20131   0.10717   0.75239   0.00000  Uiso   1.00
C328   C     0.16646   0.09955   0.85708   0.00000  Uiso   1.00
C329   C     0.16608   0.09953   0.89338   0.00000  Uiso   1.00
C330   C     0.16849   0.08550   0.91445   0.00000  Uiso   1.00
C331   C     0.17131   0.07149   0.89407   0.00000  Uiso   1.00
C332   C     0.17177   0.07156   0.85779   0.00000  Uiso   1.00
C333   C     0.16931   0.08556   0.83671   0.00000  Uiso   1.00
C334   C     0.16849   0.08559   0.95462   0.00000  Uiso   1.00
C335   C     0.13241   0.01392   0.99415   0.00000  Uiso   1.00
C336   C     0.15136   0.03128   0.00686   0.00000  Uiso   1.00
C337   C     0.16241   0.05306   0.99469   0.00000  Uiso   1.00
C338   C     0.15657   0.06141   0.96775   0.00000  Uiso   1.00
C339   C     0.13793   0.04433   0.95473   0.00000  Uiso   1.00
C340   C     0.12678   0.02253   0.96681   0.00000  Uiso   1.00
C341   C     0.15631   0.09762   0.96803   0.00000  Uiso   1.00
C342   C     0.16464   0.11970   0.97040   0.00000  Uiso   1.00
C343   C     0.15374   0.13074   0.98217   0.00000  Uiso   1.00
C344   C     0.13246   0.12157   0.99377   0.00000  Uiso   1.00
C345   C     0.12427   0.09929   0.99136   0.00000  Uiso   1.00
C346   C     0.13526   0.08835   0.97952   0.00000  Uiso   1.00
C347   C     0.19957   0.10680   0.99953   0.00000  Uiso   1.00
C348   C     0.22129   0.11764   0.01194   0.00000  Uiso   1.00
C349   C     0.24000   0.12146   0.99481   0.00000  Uiso   1.00
C350   C     0.23276   0.11238   0.96297   0.00000  Uiso   1.00
C351   C     0.21100   0.10154   0.95072   0.00000  Uiso   1.00
C352   C     0.19262   0.09784   0.96796   0.00000  Uiso   1.00
H201   H     0.12824   0.07113   0.77116   0.00000  Uiso   1.00
H202   H     0.18299   0.12936   0.78812   0.00000  Uiso   1.00
H203   H     0.16456   0.14840   0.76748   0.00000  Uiso   1.00
H204   H     0.10961   0.08990   0.75028   0.00000  Uiso   1.00
H205   H     0.20927   0.09459   0.82637   0.00000  Uiso   1.00
H206   H     0.24660   0.11318   0.80600   0.00000  Uiso   1.00
H207   H     0.22586   0.12443   0.71502   0.00000  Uiso   1.00
H208   H     0.18862   0.10583   0.73582   0.00000  Uiso   1.00
H209   H     0.16431   0.11158   0.84378   0.00000  Uiso   1.00
H210   H     0.16371   0.11158   0.90606   0.00000  Uiso   1.00
H211   H     0.17343   0.05945   0.90748   0.00000  Uiso   1.00
H212   H     0.17419   0.05955   0.84504   0.00000  Uiso   1.00
H213   H     0.15813   0.02747   0.02834   0.00000  Uiso   1.00
H214   H     0.17696   0.06469   0.00754   0.00000  Uiso   1.00
H215   H     0.13143   0.04850   0.93311   0.00000  Uiso   1.00
H216   H     0.11232   0.01119   0.95371   0.00000  Uiso   1.00
H217   H     0.18127   0.12920   0.96224   0.00000  Uiso   1.00
H218   H     0.16266   0.14813   0.98234   0.00000  Uiso   1.00
H219   H     0.10776   0.08954   0.99945   0.00000  Uiso   1.00
H220   H     0.12655   0.07088   0.97925   0.00000  Uiso   1.00
H221   H     0.18674   0.10511   0.01604   0.00000  Uiso   1.00
H222   H     0.22390   0.12370   0.03735   0.00000  Uiso   1.00
H223   H     0.24527   0.11388   0.94611   0.00000  Uiso   1.00
H224   H     0.20808   0.09537   0.92524   0.00000  Uiso   1.00
C353   C     0.12076   0.24093   0.50722   0.00000  Uiso   1.00
C354   C     0.10158   0.22365   0.49495   0.00000  Uiso   1.00
C355   C     0.09062   0.20185   0.50705   0.00000  Uiso   1.00
C356   C     0.09677   0.19341   0.53348   0.00000  Uiso   1.00
C357   C     0.11558   0.21045   0.54618   0.00000  Uiso   1.00
C358   C     0.12665   0.23226   0.53417   0.00000  Uiso   1.00
H225   H     0.09458   0.22753   0.47387   0.00000  Uiso   1.00
H226   H     0.07588   0.19029   0.49456   0.00000  Uiso   1.00
H227   H     0.12230   0.20621   0.56743   0.00000  Uiso   1.00
H228   H     0.14128   0.24354   0.54692   0.00000  Uiso   1.00
C359   C     0.11793   0.16647   0.52018   0.00000  Uiso   1.00
C360   C     0.09708   0.15720   0.53254   0.00000  Uiso   1.00
C361   C     0.08882   0.13512   0.53053   0.00000  Uiso   1.00
C362   C     0.09968   0.12407   0.51859   0.00000  Uiso   1.00
C363   C     0.12081   0.13325   0.50634   0.00000  Uiso   1.00
C364   C     0.12886   0.15553   0.50813   0.00000  Uiso   1.00
C365   C     0.08503   0.16922   0.54656   0.00000  Uiso   1.00
C366   C     0.06076   0.15690   0.53385   0.00000  Uiso   1.00
C367   C     0.04240   0.15265   0.55168   0.00000  Uiso   1.00
C368   C     0.02057   0.14172   0.53977   0.00000  Uiso   1.00
C369   C     0.01322   0.13309   0.50771   0.00000  Uiso   1.00
C370   C     0.03190   0.13742   0.49001   0.00000  Uiso   1.00
C371   C     0.05369   0.14832   0.50210   0.00000  Uiso   1.00
C372   C     0.08897   0.15573   0.60734   0.00000  Uiso   1.00
C373   C     0.08937   0.15587   0.64365   0.00000  Uiso   1.00
C374   C     0.08647   0.16964   0.66446   0.00000  Uiso   1.00
C375   C     0.08325   0.18336   0.64382   0.00000  Uiso   1.00
C376   C     0.08284   0.18321   0.60753   0.00000  Uiso   1.00
C377   C     0.08566   0.16937   0.58672   0.00000  Uiso   1.00
C378   C     0.08647   0.16958   0.70462   0.00000  Uiso   1.00
C379   C     0.12246   0.24125   0.74370   0.00000  Uiso   1.00
C380   C     0.10423   0.22360   0.75763   0.00000  Uiso   1.00
C381   C     0.09321   0.20182   0.74560   0.00000  Uiso   1.00
C382   C     0.09837   0.19376   0.71763   0.00000  Uiso   1.00
C383   C     0.11639   0.21110   0.70357   0.00000  Uiso   1.00
C384   C     0.12746   0.23291   0.71541   0.00000  Uiso   1.00
C385   C     0.09869   0.15757   0.71803   0.00000  Uiso   1.00
C386   C     0.09050   0.13549   0.71999   0.00000  Uiso   1.00
C387   C     0.10147   0.12446   0.73157   0.00000  Uiso   1.00
C388   C     0.12268   0.13363   0.74350   0.00000  Uiso   1.00
C389   C     0.13075   0.15591   0.74147   0.00000  Uiso   1.00
C390   C     0.11970   0.16685   0.72975   0.00000  Uiso   1.00
C391   C     0.05531   0.14771   0.74922   0.00000  Uiso   1.00
C392   C     0.03358   0.13665   0.76153   0.00000  Uiso   1.00
C393   C     0.01491   0.13324   0.74463   0.00000  Uiso   1.00
C394   C     0.02222   0.14298   0.71314   0.00000  Uiso   1.00
C395   C     0.04400   0.15399   0.70097   0.00000  Uiso   1.00
C396   C     0.06233   0.15725   0.71796   0.00000  Uiso   1.00
H229   H     0.12654   0.18394   0.52003   0.00000  Uiso   1.00
H230   H     0.07233   0.12563   0.53931   0.00000  Uiso   1.00
H231   H     0.09086   0.10668   0.51893   0.00000  Uiso   1.00
H232   H     0.14524   0.16528   0.49941   0.00000  Uiso   1.00
H233   H     0.04542   0.15844   0.57738   0.00000  Uiso   1.00
H234   H     0.00808   0.13975   0.55707   0.00000  Uiso   1.00
H235   H     0.02923   0.13178   0.46436   0.00000  Uiso   1.00
H236   H     0.06649   0.15042   0.48516   0.00000  Uiso   1.00
H237   H     0.09150   0.14390   0.59429   0.00000  Uiso   1.00
H238   H     0.09213   0.14411   0.65655   0.00000  Uiso   1.00
H239   H     0.08077   0.19521   0.65696   0.00000  Uiso   1.00
H240   H     0.08010   0.19496   0.59450   0.00000  Uiso   1.00
H241   H     0.09804   0.22715   0.78001   0.00000  Uiso   1.00
H242   H     0.07925   0.18994   0.75942   0.00000  Uiso   1.00
H243   H     0.12236   0.20715   0.68117   0.00000  Uiso   1.00
H244   H     0.14133   0.24450   0.70135   0.00000  Uiso   1.00
H245   H     0.07393   0.12599   0.71156   0.00000  Uiso   1.00
H246   H     0.09266   0.10706   0.73135   0.00000  Uiso   1.00
H247   H     0.14720   0.16566   0.74983   0.00000  Uiso   1.00
H248   H     0.12829   0.18433   0.72973   0.00000  Uiso   1.00
H249   H     0.06810   0.14900   0.76552   0.00000  Uiso   1.00
H250   H     0.03091   0.13009   0.78666   0.00000  Uiso   1.00
H251   H     0.00976   0.14188   0.69651   0.00000  Uiso   1.00
H252   H     0.04695   0.16065   0.67576   0.00000  Uiso   1.00
C397   C     0.38383   0.01406   0.75681   0.00000  Uiso   1.00
C398   C     0.40187   0.03184   0.74272   0.00000  Uiso   1.00
C399   C     0.41289   0.05356   0.75500   0.00000  Uiso   1.00
C400   C     0.40787   0.06145   0.78334   0.00000  Uiso   1.00
C401   C     0.38994   0.04401   0.79741   0.00000  Uiso   1.00
C402   C     0.37892   0.02224   0.78537   0.00000  Uiso   1.00
H253   H     0.40792   0.02843   0.72007   0.00000  Uiso   1.00
H254   H     0.42672   0.06553   0.74107   0.00000  Uiso   1.00
H255   H     0.38404   0.04782   0.82003   0.00000  Uiso   1.00
H256   H     0.36519   0.01055   0.79956   0.00000  Uiso   1.00
C403   C     0.38690   0.08859   0.77071   0.00000  Uiso   1.00
C404   C     0.40788   0.09776   0.78249   0.00000  Uiso   1.00
C405   C     0.41634   0.11986   0.77988   0.00000  Uiso   1.00
C406   C     0.40557   0.13101   0.76785   0.00000  Uiso   1.00
C407   C     0.38432   0.12194   0.75618   0.00000  Uiso   1.00
C408   C     0.37606   0.09964   0.75856   0.00000  Uiso   1.00
C409   C     0.41977   0.08557   0.79656   0.00000  Uiso   1.00
C410   C     0.44403   0.09774   0.78375   0.00000  Uiso   1.00
C411   C     0.46226   0.10101   0.80106   0.00000  Uiso   1.00
C412   C     0.48409   0.11187   0.78910   0.00000  Uiso   1.00
C413   C     0.49155   0.12140   0.75753   0.00000  Uiso   1.00
C414   C     0.47298   0.11792   0.74027   0.00000  Uiso   1.00
C415   C     0.45120   0.10707   0.75239   0.00000  Uiso   1.00
C416   C     0.41635   0.09945   0.85709   0.00000  Uiso   1.00
C417   C     0.41599   0.09944   0.89340   0.00000  Uiso   1.00
C418   C     0.41841   0.08541   0.91445   0.00000  Uiso   1.00
C419   C     0.42122   0.07139   0.89407   0.00000  Uiso   1.00
C420   C     0.42166   0.07145   0.85779   0.00000  Uiso   1.00
C421   C     0.41920   0.08546   0.83672   0.00000  Uiso   1.00
C422   C     0.41842   0.08551   0.95463   0.00000  Uiso   1.00
C423   C     0.38246   0.01382   0.99410   0.00000  Uiso   1.00
C424   C     0.40140   0.03119   0.00681   0.00000  Uiso   1.00
C425   C     0.41241   0.05298   0.99467   0.00000  Uiso   1.00
C426   C     0.40654   0.06132   0.96776   0.00000  Uiso   1.00
C427   C     0.38789   0.04422   0.95475   0.00000  Uiso   1.00
C428   C     0.37678   0.02243   0.96680   0.00000  Uiso   1.00
C429   C     0.40625   0.09753   0.96807   0.00000  Uiso   1.00
C430   C     0.41458   0.11961   0.97046   0.00000  Uiso   1.00
C431   C     0.40369   0.13065   0.98227   0.00000  Uiso   1.00
C432   C     0.38242   0.12148   0.99388   0.00000  Uiso   1.00
C433   C     0.37423   0.09920   0.99147   0.00000  Uiso   1.00
C434   C     0.38520   0.08826   0.97960   0.00000  Uiso   1.00
C435   C     0.44953   0.10674   0.99950   0.00000  Uiso   1.00
C436   C     0.47125   0.11760   0.01188   0.00000  Uiso   1.00
C437   C     0.48996   0.12143   0.99472   0.00000  Uiso   1.00
C438   C     0.48270   0.11233   0.96289   0.00000  Uiso   1.00
C439   C     0.46094   0.10148   0.95067   0.00000  Uiso   1.00
C440   C     0.44256   0.09776   0.96794   0.00000  Uiso   1.00
H257   H     0.37814   0.07112   0.77114   0.00000  Uiso   1.00
H258   H     0.43294   0.12928   0.78821   0.00000  Uiso   1.00
H259   H     0.41456   0.14840   0.76765   0.00000  Uiso   1.00
H260   H     0.35956   0.08996   0.75034   0.00000  Uiso   1.00
H261   H     0.45915   0.09448   0.82637   0.00000  Uiso   1.00
H262   H     0.49648   0.11304   0.80598   0.00000  Uiso   1.00
H263   H     0.47574   0.12429   0.71501   0.00000  Uiso   1.00
H264   H     0.43851   0.10573   0.73582   0.00000  Uiso   1.00
H265   H     0.41420   0.11148   0.84380   0.00000  Uiso   1.00
H266   H     0.41362   0.11148   0.90608   0.00000  Uiso   1.00
H267   H     0.42334   0.05936   0.90748   0.00000  Uiso   1.00
H268   H     0.42408   0.05945   0.84503   0.00000  Uiso   1.00
H269   H     0.40819   0.02739   0.02827   0.00000  Uiso   1.00
H270   H     0.42696   0.06462   0.00750   0.00000  Uiso   1.00
H271   H     0.38137   0.04839   0.93316   0.00000  Uiso   1.00
H272   H     0.36233   0.01107   0.95371   0.00000  Uiso   1.00
H273   H     0.43121   0.12910   0.96229   0.00000  Uiso   1.00
H274   H     0.41262   0.14804   0.98245   0.00000  Uiso   1.00
H275   H     0.35771   0.08945   0.99958   0.00000  Uiso   1.00
H276   H     0.37649   0.07079   0.97932   0.00000  Uiso   1.00
H277   H     0.43670   0.10504   0.01602   0.00000  Uiso   1.00
H278   H     0.47387   0.12366   0.03728   0.00000  Uiso   1.00
H279   H     0.49520   0.11383   0.94601   0.00000  Uiso   1.00
H280   H     0.45800   0.09529   0.92520   0.00000  Uiso   1.00
C441   C     0.37026   0.24090   0.50763   0.00000  Uiso   1.00
C442   C     0.35113   0.22356   0.49535   0.00000  Uiso   1.00
C443   C     0.34032   0.20174   0.50731   0.00000  Uiso   1.00
C444   C     0.34660   0.19331   0.53361   0.00000  Uiso   1.00
C445   C     0.36538   0.21040   0.54629   0.00000  Uiso   1.00
C446   C     0.37629   0.23224   0.53442   0.00000  Uiso   1.00
H281   H     0.34404   0.22743   0.47436   0.00000  Uiso   1.00
H282   H     0.32559   0.19013   0.49484   0.00000  Uiso   1.00
H283   H     0.37219   0.20618   0.56743   0.00000  Uiso   1.00
H284   H     0.39091   0.24356   0.54716   0.00000  Uiso   1.00
C447   C     0.36789   0.16639   0.52026   0.00000  Uiso   1.00
C448   C     0.34704   0.15712   0.53265   0.00000  Uiso   1.00
C449   C     0.33880   0.13504   0.53069   0.00000  Uiso   1.00
C450   C     0.34965   0.12399   0.51876   0.00000  Uiso   1.00
C451   C     0.37077   0.13316   0.50647   0.00000  Uiso   1.00
C452   C     0.37882   0.15544   0.50822   0.00000  Uiso   1.00
C453   C     0.33497   0.16912   0.54667   0.00000  Uiso   1.00
C454   C     0.31069   0.15675   0.53397   0.00000  Uiso   1.00
C455   C     0.29233   0.15251   0.55179   0.00000  Uiso   1.00
C456   C     0.27050   0.14160   0.53985   0.00000  Uiso   1.00
C457   C     0.26316   0.13298   0.50779   0.00000  Uiso   1.00
C458   C     0.28184   0.13724   0.49014   0.00000  Uiso   1.00
C459   C     0.30362   0.14813   0.50225   0.00000  Uiso   1.00
C460   C     0.33894   0.15567   0.60748   0.00000  Uiso   1.00
C461   C     0.33934   0.15585   0.64379   0.00000  Uiso   1.00
C462   C     0.33644   0.16963   0.66456   0.00000  Uiso   1.00
C463   C     0.33322   0.18333   0.64390   0.00000  Uiso   1.00
C464   C     0.33279   0.18314   0.60761   0.00000  Uiso   1.00
C465   C     0.33561   0.16930   0.58683   0.00000  Uiso   1.00
C466   C     0.33643   0.16959   0.70473   0.00000  Uiso   1.00
C467   C     0.37193   0.24127   0.74378   0.00000  Uiso   1.00
C468   C     0.35370   0.22356   0.75759   0.00000  Uiso   1.00
C469   C     0.34284   0.20178   0.74558   0.00000  Uiso   1.00
C470   C     0.34819   0.19377   0.71774   0.00000  Uiso   1.00
C471   C     0.36619   0.21117   0.70377   0.00000  Uiso   1.00
C472   C     0.37709   0.23299   0.71558   0.00000  Uiso   1.00
C473   C     0.34869   0.15763   0.71819   0.00000  Uiso   1.00
C474   C     0.34051   0.13555   0.72014   0.00000  Uiso   1.00
C475   C     0.35148   0.12452   0.73172   0.00000  Uiso   1.00
C476   C     0.37268   0.13369   0.74367   0.00000  Uiso   1.00
C477   C     0.38074   0.15597   0.74166   0.00000  Uiso   1.00
C478   C     0.36969   0.16691   0.72994   0.00000  Uiso   1.00
C479   C     0.30525   0.14764   0.74927   0.00000  Uiso   1.00
C480   C     0.28351   0.13659   0.76156   0.00000  Uiso   1.00
C481   C     0.26486   0.13321   0.74466   0.00000  Uiso   1.00
C482   C     0.27218   0.14295   0.71318   0.00000  Uiso   1.00
C483   C     0.29395   0.15395   0.70102   0.00000  Uiso   1.00
C484   C     0.31228   0.15721   0.71802   0.00000  Uiso   1.00
H285   H     0.37649   0.18387   0.52007   0.00000  Uiso   1.00
H286   H     0.32231   0.12556   0.53951   0.00000  Uiso   1.00
H287   H     0.34084   0.10660   0.51914   0.00000  Uiso   1.00
H288   H     0.39518   0.16519   0.49946   0.00000  Uiso   1.00
H289   H     0.29534   0.15833   0.57747   0.00000  Uiso   1.00
H290   H     0.25801   0.13966   0.55712   0.00000  Uiso   1.00
H291   H     0.27918   0.13157   0.46450   0.00000  Uiso   1.00
H292   H     0.31643   0.15021   0.48533   0.00000  Uiso   1.00
H293   H     0.34146   0.14383   0.59446   0.00000  Uiso   1.00
H294   H     0.34211   0.14410   0.65672   0.00000  Uiso   1.00
H295   H     0.33073   0.19518   0.65701   0.00000  Uiso   1.00
H296   H     0.33003   0.19487   0.59455   0.00000  Uiso   1.00
H297   H     0.34739   0.22707   0.77987   0.00000  Uiso   1.00
H298   H     0.32886   0.18985   0.75930   0.00000  Uiso   1.00
H299   H     0.37229   0.20727   0.68145   0.00000  Uiso   1.00
H300   H     0.39096   0.24462   0.70160   0.00000  Uiso   1.00
H301   H     0.32394   0.12605   0.71169   0.00000  Uiso   1.00
H302   H     0.34267   0.10713   0.73148   0.00000  Uiso   1.00
H303   H     0.39719   0.16573   0.75005   0.00000  Uiso   1.00
H304   H     0.37828   0.18439   0.72993   0.00000  Uiso   1.00
H305   H     0.31803   0.14893   0.76557   0.00000  Uiso   1.00
H306   H     0.28084   0.13001   0.78668   0.00000  Uiso   1.00
H307   H     0.25973   0.14188   0.69654   0.00000  Uiso   1.00
H308   H     0.29692   0.16064   0.67582   0.00000  Uiso   1.00
C485   C     0.13421   0.26440   0.75658   0.00000  Uiso   1.00
C486   C     0.15215   0.28224   0.74240   0.00000  Uiso   1.00
C487   C     0.16314   0.30394   0.75471   0.00000  Uiso   1.00
C488   C     0.15822   0.31177   0.78323   0.00000  Uiso   1.00
C489   C     0.14037   0.29427   0.79739   0.00000  Uiso   1.00
C490   C     0.12938   0.27251   0.78531   0.00000  Uiso   1.00
H309   H     0.15812   0.27888   0.71961   0.00000  Uiso   1.00
H310   H     0.17688   0.31600   0.74071   0.00000  Uiso   1.00
H311   H     0.13452   0.29802   0.82011   0.00000  Uiso   1.00
H312   H     0.11573   0.26077   0.79960   0.00000  Uiso   1.00
C491   C     0.13726   0.33871   0.76991   0.00000  Uiso   1.00
C492   C     0.15810   0.34795   0.78239   0.00000  Uiso   1.00
C493   C     0.16633   0.37005   0.78037   0.00000  Uiso   1.00
C494   C     0.15549   0.38110   0.76831   0.00000  Uiso   1.00
C495   C     0.13437   0.37196   0.75599   0.00000  Uiso   1.00
C496   C     0.12635   0.34967   0.75773   0.00000  Uiso   1.00
C497   C     0.16999   0.33583   0.79656   0.00000  Uiso   1.00
C498   C     0.19450   0.34820   0.78423   0.00000  Uiso   1.00
C499   C     0.21223   0.35052   0.80168   0.00000  Uiso   1.00
C500   C     0.23438   0.36178   0.79038   0.00000  Uiso   1.00
C501   C     0.24187   0.37222   0.76008   0.00000  Uiso   1.00
C502   C     0.22415   0.36980   0.74253   0.00000  Uiso   1.00
C503   C     0.20200   0.35849   0.75376   0.00000  Uiso   1.00
C504   C     0.16651   0.34965   0.85707   0.00000  Uiso   1.00
C505   C     0.16617   0.34964   0.89336   0.00000  Uiso   1.00
C506   C     0.16853   0.33558   0.91443   0.00000  Uiso   1.00
C507   C     0.17121   0.32147   0.89401   0.00000  Uiso   1.00
C508   C     0.17158   0.32151   0.85774   0.00000  Uiso   1.00
C509   C     0.16927   0.33561   0.83665   0.00000  Uiso   1.00
C510   C     0.16856   0.33569   0.95454   0.00000  Uiso   1.00
C511   C     0.13259   0.26408   0.99419   0.00000  Uiso   1.00
C512   C     0.15144   0.28149   0.00704   0.00000  Uiso   1.00
C513   C     0.16248   0.30326   0.99486   0.00000  Uiso   1.00
C514   C     0.15673   0.31157   0.96772   0.00000  Uiso   1.00
C515   C     0.13817   0.29441   0.95458   0.00000  Uiso   1.00
C516   C     0.12704   0.27263   0.96667   0.00000  Uiso   1.00
C517   C     0.15637   0.34768   0.96790   0.00000  Uiso   1.00
C518   C     0.16455   0.36976   0.96979   0.00000  Uiso   1.00
C519   C     0.15361   0.38076   0.98149   0.00000  Uiso   1.00
C520   C     0.13244   0.37157   0.99356   0.00000  Uiso   1.00
C521   C     0.12439   0.34929   0.99165   0.00000  Uiso   1.00
C522   C     0.13541   0.33838   0.97986   0.00000  Uiso   1.00
C523   C     0.19959   0.35751   0.99912   0.00000  Uiso   1.00
C524   C     0.22150   0.36875   0.01145   0.00000  Uiso   1.00
C525   C     0.23970   0.37211   0.99438   0.00000  Uiso   1.00
C526   C     0.23296   0.36268   0.96328   0.00000  Uiso   1.00
C527   C     0.21105   0.35145   0.95090   0.00000  Uiso   1.00
C528   C     0.19284   0.34814   0.96793   0.00000  Uiso   1.00
H313   H     0.12870   0.32124   0.76982   0.00000  Uiso   1.00
H314   H     0.18280   0.37953   0.78927   0.00000  Uiso   1.00
H315   H     0.16429   0.39849   0.76866   0.00000  Uiso   1.00
H316   H     0.10999   0.33994   0.74893   0.00000  Uiso   1.00
H317   H     0.20870   0.34308   0.82630   0.00000  Uiso   1.00
H318   H     0.24661   0.36228   0.80707   0.00000  Uiso   1.00
H319   H     0.22754   0.37724   0.71790   0.00000  Uiso   1.00
H320   H     0.18962   0.35786   0.73728   0.00000  Uiso   1.00
H321   H     0.16446   0.36175   0.84380   0.00000  Uiso   1.00
H322   H     0.16390   0.36175   0.90604   0.00000  Uiso   1.00
H323   H     0.17325   0.30939   0.90739   0.00000  Uiso   1.00
H324   H     0.17390   0.30944   0.84498   0.00000  Uiso   1.00
H325   H     0.15812   0.27774   0.02869   0.00000  Uiso   1.00
H326   H     0.17694   0.31495   0.00782   0.00000  Uiso   1.00
H327   H     0.13174   0.29854   0.93284   0.00000  Uiso   1.00
H328   H     0.11268   0.26124   0.95343   0.00000  Uiso   1.00
H329   H     0.18110   0.37928   0.96126   0.00000  Uiso   1.00
H330   H     0.16242   0.39816   0.98122   0.00000  Uiso   1.00
H331   H     0.10797   0.33952   0.00016   0.00000  Uiso   1.00
H332   H     0.12684   0.32091   0.98001   0.00000  Uiso   1.00
H333   H     0.18677   0.35606   0.01531   0.00000  Uiso   1.00
H334   H     0.22428   0.37534   0.03661   0.00000  Uiso   1.00
H335   H     0.24564   0.36401   0.94684   0.00000  Uiso   1.00
H336   H     0.20812   0.34484   0.92577   0.00000  Uiso   1.00
C529   C     0.12082   0.49092   0.50716   0.00000  Uiso   1.00
C530   C     0.10164   0.47364   0.49489   0.00000  Uiso   1.00
C531   C     0.09065   0.45185   0.50700   0.00000  Uiso   1.00
C532   C     0.09679   0.44340   0.53344   0.00000  Uiso   1.00
C533   C     0.11561   0.46043   0.54613   0.00000  Uiso   1.00
C534   C     0.12670   0.48224   0.53411   0.00000  Uiso   1.00
H337   H     0.09464   0.47753   0.47380   0.00000  Uiso   1.00
H338   H     0.07591   0.44029   0.49450   0.00000  Uiso   1.00
H339   H     0.12232   0.45618   0.56737   0.00000  Uiso   1.00
H340   H     0.14134   0.49351   0.54686   0.00000  Uiso   1.00
C535   C     0.11788   0.41645   0.51995   0.00000  Uiso   1.00
C536   C     0.09707   0.40718   0.53245   0.00000  Uiso   1.00
C537   C     0.08882   0.38510   0.53047   0.00000  Uiso   1.00
C538   C     0.09966   0.37406   0.51847   0.00000  Uiso   1.00
C539   C     0.12077   0.38323   0.50613   0.00000  Uiso   1.00
C540   C     0.12880   0.40551   0.50783   0.00000  Uiso   1.00
C541   C     0.08504   0.41921   0.54652   0.00000  Uiso   1.00
C542   C     0.06077   0.40689   0.53381   0.00000  Uiso   1.00
C543   C     0.04241   0.40263   0.55164   0.00000  Uiso   1.00
C544   C     0.02058   0.39170   0.53972   0.00000  Uiso   1.00
C545   C     0.01323   0.38309   0.50766   0.00000  Uiso   1.00
C546   C     0.03191   0.38740   0.48996   0.00000  Uiso   1.00
C547   C     0.05370   0.39830   0.50206   0.00000  Uiso   1.00
C548   C     0.08900   0.40573   0.60731   0.00000  Uiso   1.00
C549   C     0.08938   0.40587   0.64361   0.00000  Uiso   1.00
C550   C     0.08647   0.41964   0.66442   0.00000  Uiso   1.00
C551   C     0.08326   0.43335   0.64377   0.00000  Uiso   1.00
C552   C     0.08285   0.43320   0.60748   0.00000  Uiso   1.00
C553   C     0.08568   0.41937   0.58668   0.00000  Uiso   1.00
C554   C     0.08646   0.41958   0.70458   0.00000  Uiso   1.00
C555   C     0.12251   0.49124   0.74369   0.00000  Uiso   1.00
C556   C     0.10427   0.47359   0.75762   0.00000  Uiso   1.00
C557   C     0.09322   0.45182   0.74557   0.00000  Uiso   1.00
C558   C     0.09837   0.44376   0.71759   0.00000  Uiso   1.00
C559   C     0.11640   0.46109   0.70353   0.00000  Uiso   1.00
C560   C     0.12749   0.48290   0.71539   0.00000  Uiso   1.00
C561   C     0.09867   0.40757   0.71802   0.00000  Uiso   1.00
C562   C     0.09050   0.38549   0.71994   0.00000  Uiso   1.00
C563   C     0.10148   0.37446   0.73151   0.00000  Uiso   1.00
C564   C     0.12268   0.38365   0.74348   0.00000  Uiso   1.00
C565   C     0.13072   0.40593   0.74153   0.00000  Uiso   1.00
C566   C     0.11967   0.41686   0.72980   0.00000  Uiso   1.00
C567   C     0.05530   0.39773   0.74918   0.00000  Uiso   1.00
C568   C     0.03356   0.38669   0.76150   0.00000  Uiso   1.00
C569   C     0.01490   0.38327   0.74459   0.00000  Uiso   1.00
C570   C     0.02221   0.39301   0.71310   0.00000  Uiso   1.00
C571   C     0.04398   0.40401   0.70093   0.00000  Uiso   1.00
C572   C     0.06231   0.40726   0.71792   0.00000  Uiso   1.00
H341   H     0.12648   0.43393   0.51972   0.00000  Uiso   1.00
H342   H     0.07234   0.37561   0.53934   0.00000  Uiso   1.00
H343   H     0.09085   0.35667   0.51886   0.00000  Uiso   1.00
H344   H     0.14515   0.41526   0.49901   0.00000  Uiso   1.00
H345   H     0.04542   0.40842   0.57734   0.00000  Uiso   1.00
H346   H     0.00808   0.38973   0.55701   0.00000  Uiso   1.00
H347   H     0.02925   0.38176   0.46431   0.00000  Uiso   1.00
H348   H     0.06650   0.40040   0.48513   0.00000  Uiso   1.00
H349   H     0.09153   0.39390   0.59426   0.00000  Uiso   1.00
H350   H     0.09215   0.39411   0.65652   0.00000  Uiso   1.00
H351   H     0.08077   0.44519   0.65691   0.00000  Uiso   1.00
H352   H     0.08011   0.44495   0.59444   0.00000  Uiso   1.00
H353   H     0.09810   0.47715   0.78000   0.00000  Uiso   1.00
H354   H     0.07926   0.43995   0.75939   0.00000  Uiso   1.00
H355   H     0.12236   0.45714   0.68112   0.00000  Uiso   1.00
H356   H     0.14136   0.49448   0.70133   0.00000  Uiso   1.00
H357   H     0.07393   0.37598   0.71147   0.00000  Uiso   1.00
H358   H     0.09268   0.35707   0.73126   0.00000  Uiso   1.00
H359   H     0.14716   0.41569   0.74993   0.00000  Uiso   1.00
H360   H     0.12824   0.43433   0.72982   0.00000  Uiso   1.00
H361   H     0.06808   0.39902   0.76548   0.00000  Uiso   1.00
H362   H     0.03090   0.38012   0.78663   0.00000  Uiso   1.00
H363   H     0.00975   0.39192   0.69647   0.00000  Uiso   1.00
H364   H     0.04694   0.41068   0.67572   0.00000  Uiso   1.00
C573   C     0.38360   0.26441   0.75667   0.00000  Uiso   1.00
C574   C     0.40182   0.28214   0.74284   0.00000  Uiso   1.00
C575   C     0.41289   0.30383   0.75521   0.00000  Uiso   1.00
C576   C     0.40778   0.31176   0.78341   0.00000  Uiso   1.00
C577   C     0.38960   0.29440   0.79712   0.00000  Uiso   1.00
C578   C     0.37851   0.27267   0.78496   0.00000  Uiso   1.00
H365   H     0.40801   0.27868   0.72039   0.00000  Uiso   1.00
H366   H     0.42690   0.31574   0.74156   0.00000  Uiso   1.00
H367   H     0.38359   0.29826   0.81956   0.00000  Uiso   1.00
H368   H     0.36459   0.26103   0.79888   0.00000  Uiso   1.00
C579   C     0.38751   0.33959   0.77054   0.00000  Uiso   1.00
C580   C     0.40823   0.34842   0.78287   0.00000  Uiso   1.00
C581   C     0.41709   0.37051   0.78113   0.00000  Uiso   1.00
C582   C     0.40667   0.38212   0.76890   0.00000  Uiso   1.00
C583   C     0.38597   0.37328   0.75658   0.00000  Uiso   1.00
C584   C     0.37712   0.35123   0.75822   0.00000  Uiso   1.00
C585   C     0.41985   0.33579   0.79687   0.00000  Uiso   1.00
C586   C     0.44407   0.34782   0.78409   0.00000  Uiso   1.00
C587   C     0.46228   0.35083   0.80123   0.00000  Uiso   1.00
C588   C     0.48409   0.36166   0.78925   0.00000  Uiso   1.00
C589   C     0.49160   0.37146   0.75785   0.00000  Uiso   1.00
C590   C     0.47306   0.36821   0.74073   0.00000  Uiso   1.00
C591   C     0.45129   0.35735   0.75285   0.00000  Uiso   1.00
C592   C     0.41623   0.34944   0.85739   0.00000  Uiso   1.00
C593   C     0.41589   0.34940   0.89368   0.00000  Uiso   1.00
C594   C     0.41841   0.33542   0.91474   0.00000  Uiso   1.00
C595   C     0.42123   0.32142   0.89429   0.00000  Uiso   1.00
C596   C     0.42166   0.32151   0.85802   0.00000  Uiso   1.00
C597   C     0.41919   0.33554   0.83696   0.00000  Uiso   1.00
C598   C     0.41845   0.33565   0.95485   0.00000  Uiso   1.00
C599   C     0.38197   0.26409   0.99476   0.00000  Uiso   1.00
C600   C     0.40088   0.28145   0.00758   0.00000  Uiso   1.00
C601   C     0.41199   0.30322   0.99537   0.00000  Uiso   1.00
C602   C     0.40627   0.31157   0.96828   0.00000  Uiso   1.00
C603   C     0.38753   0.29452   0.95537   0.00000  Uiso   1.00
C604   C     0.37633   0.27275   0.96749   0.00000  Uiso   1.00
C605   C     0.40660   0.34827   0.96778   0.00000  Uiso   1.00
C606   C     0.41569   0.37034   0.97028   0.00000  Uiso   1.00
C607   C     0.40507   0.38200   0.98126   0.00000  Uiso   1.00
C608   C     0.38390   0.37321   0.99134   0.00000  Uiso   1.00
C609   C     0.37484   0.35117   0.98897   0.00000  Uiso   1.00
C610   C     0.38545   0.33949   0.97800   0.00000  Uiso   1.00
C611   C     0.44949   0.35636   0.99995   0.00000  Uiso   1.00
C612   C     0.47119   0.36714   0.01236   0.00000  Uiso   1.00
C613   C     0.48993   0.37122   0.99504   0.00000  Uiso   1.00
C614   C     0.48270   0.36237   0.96307   0.00000  Uiso   1.00
C615   C     0.46094   0.35158   0.95083   0.00000  Uiso   1.00
C616   C     0.44253   0.34768   0.96820   0.00000  Uiso   1.00
H369   H     0.37857   0.32216   0.77041   0.00000  Uiso   1.00
H370   H     0.43354   0.37957   0.79008   0.00000  Uiso   1.00
H371   H     0.41577   0.39956   0.76920   0.00000  Uiso   1.00
H372   H     0.36069   0.34200   0.74926   0.00000  Uiso   1.00
H373   H     0.45914   0.34411   0.82641   0.00000  Uiso   1.00
H374   H     0.49645   0.36262   0.80598   0.00000  Uiso   1.00
H375   H     0.47584   0.37479   0.71561   0.00000  Uiso   1.00
H376   H     0.43862   0.35622   0.73643   0.00000  Uiso   1.00
H377   H     0.41402   0.36144   0.84416   0.00000  Uiso   1.00
H378   H     0.41347   0.36140   0.90642   0.00000  Uiso   1.00
H379   H     0.42340   0.30942   0.90767   0.00000  Uiso   1.00
H380   H     0.42411   0.30954   0.84522   0.00000  Uiso   1.00
H381   H     0.40761   0.27764   0.02910   0.00000  Uiso   1.00
H382   H     0.42656   0.31480   0.00820   0.00000  Uiso   1.00
H383   H     0.38110   0.29870   0.93369   0.00000  Uiso   1.00
H384   H     0.36186   0.26142   0.95440   0.00000  Uiso   1.00
H385   H     0.43248   0.37934   0.96296   0.00000  Uiso   1.00
H386   H     0.41439   0.39942   0.98179   0.00000  Uiso   1.00
H387   H     0.35804   0.34198   0.99619   0.00000  Uiso   1.00
H388   H     0.37625   0.32208   0.97735   0.00000  Uiso   1.00
H389   H     0.43664   0.35452   0.01657   0.00000  Uiso   1.00
H390   H     0.47378   0.37296   0.03790   0.00000  Uiso   1.00
H391   H     0.49522   0.36406   0.94607   0.00000  Uiso   1.00
H392   H     0.45803   0.34564   0.92521   0.00000  Uiso   1.00
C617   C     0.63383   0.01400   0.25683   0.00000  Uiso   1.00
C618   C     0.65187   0.03179   0.24275   0.00000  Uiso   1.00
C619   C     0.66290   0.05350   0.25506   0.00000  Uiso   1.00
C620   C     0.65790   0.06138   0.28342   0.00000  Uiso   1.00
C621   C     0.63998   0.04394   0.29750   0.00000  Uiso   1.00
C622   C     0.62894   0.02218   0.28543   0.00000  Uiso   1.00
H393   H     0.65791   0.02839   0.22007   0.00000  Uiso   1.00
H394   H     0.67673   0.06547   0.24112   0.00000  Uiso   1.00
H395   H     0.63408   0.04773   0.32014   0.00000  Uiso   1.00
H396   H     0.61521   0.01048   0.29962   0.00000  Uiso   1.00
C623   C     0.63689   0.08845   0.27076   0.00000  Uiso   1.00
C624   C     0.65787   0.09766   0.28254   0.00000  Uiso   1.00
C625   C     0.66629   0.11975   0.27989   0.00000  Uiso   1.00
C626   C     0.65550   0.13086   0.26781   0.00000  Uiso   1.00
C627   C     0.63425   0.12175   0.25613   0.00000  Uiso   1.00
C628   C     0.62602   0.09946   0.25855   0.00000  Uiso   1.00
C629   C     0.66979   0.08551   0.29663   0.00000  Uiso   1.00
C630   C     0.69405   0.09768   0.28381   0.00000  Uiso   1.00
C631   C     0.71229   0.10095   0.30111   0.00000  Uiso   1.00
C632   C     0.73411   0.11181   0.28913   0.00000  Uiso   1.00
C633   C     0.74156   0.12134   0.25756   0.00000  Uiso   1.00
C634   C     0.72298   0.11785   0.24031   0.00000  Uiso   1.00
C635   C     0.70121   0.10700   0.25245   0.00000  Uiso   1.00
C636   C     0.66638   0.09938   0.35717   0.00000  Uiso   1.00
C637   C     0.66601   0.09936   0.39348   0.00000  Uiso   1.00
C638   C     0.66842   0.08532   0.41453   0.00000  Uiso   1.00
C639   C     0.67124   0.07131   0.39414   0.00000  Uiso   1.00
C640   C     0.67169   0.07139   0.35785   0.00000  Uiso   1.00
C641   C     0.66923   0.08540   0.33679   0.00000  Uiso   1.00
C642   C     0.66841   0.08540   0.45470   0.00000  Uiso   1.00
C643   C     0.63230   0.01369   0.49405   0.00000  Uiso   1.00
C644   C     0.65125   0.03103   0.50681   0.00000  Uiso   1.00
C645   C     0.66231   0.05282   0.49471   0.00000  Uiso   1.00
C646   C     0.65649   0.06121   0.46779   0.00000  Uiso   1.00
C647   C     0.63784   0.04414   0.45473   0.00000  Uiso   1.00
C648   C     0.62669   0.02233   0.46674   0.00000  Uiso   1.00
C649   C     0.65624   0.09743   0.46813   0.00000  Uiso   1.00
C650   C     0.66457   0.11951   0.47051   0.00000  Uiso   1.00
C651   C     0.65367   0.13054   0.48228   0.00000  Uiso   1.00
C652   C     0.63239   0.12137   0.49385   0.00000  Uiso   1.00
C653   C     0.62420   0.09909   0.49146   0.00000  Uiso   1.00
C654   C     0.63519   0.08815   0.47962   0.00000  Uiso   1.00
C655   C     0.69951   0.10662   0.49959   0.00000  Uiso   1.00
C656   C     0.72124   0.11751   0.51195   0.00000  Uiso   1.00
C657   C     0.73995   0.12137   0.49477   0.00000  Uiso   1.00
C658   C     0.73270   0.11227   0.46295   0.00000  Uiso   1.00
C659   C     0.71093   0.10139   0.45074   0.00000  Uiso   1.00
C660   C     0.69255   0.09765   0.46802   0.00000  Uiso   1.00
H397   H     0.62815   0.07098   0.27123   0.00000  Uiso   1.00
H398   H     0.68289   0.12920   0.28822   0.00000  Uiso   1.00
H399   H     0.66447   0.14825   0.26757   0.00000  Uiso   1.00
H400   H     0.60952   0.08975   0.25034   0.00000  Uiso   1.00
H401   H     0.70918   0.09442   0.32642   0.00000  Uiso   1.00
H402   H     0.74650   0.11298   0.30600   0.00000  Uiso   1.00
H403   H     0.72573   0.12421   0.21504   0.00000  Uiso   1.00
H404   H     0.68851   0.10565   0.23588   0.00000  Uiso   1.00
H405   H     0.66423   0.11142   0.34388   0.00000  Uiso   1.00
H406   H     0.66364   0.11140   0.40617   0.00000  Uiso   1.00
H407   H     0.67336   0.05928   0.40754   0.00000  Uiso   1.00
H408   H     0.67411   0.05938   0.34509   0.00000  Uiso   1.00
H409   H     0.65800   0.02720   0.52829   0.00000  Uiso   1.00
H410   H     0.67685   0.06443   0.50759   0.00000  Uiso   1.00
H411   H     0.63137   0.04834   0.43313   0.00000  Uiso   1.00
H412   H     0.61224   0.01100   0.45361   0.00000  Uiso   1.00
H413   H     0.68120   0.12900   0.46236   0.00000  Uiso   1.00
H414   H     0.66259   0.14793   0.48245   0.00000  Uiso   1.00
H415   H     0.60768   0.08934   0.49955   0.00000  Uiso   1.00
H416   H     0.62648   0.07068   0.47936   0.00000  Uiso   1.00
H417   H     0.68668   0.10491   0.51612   0.00000  Uiso   1.00
H418   H     0.72386   0.12357   0.53735   0.00000  Uiso   1.00
H419   H     0.74520   0.11379   0.44606   0.00000  Uiso   1.00
H420   H     0.70800   0.09521   0.42527   0.00000  Uiso   1.00
C661   C     0.62059   0.24072   0.00718   0.00000  Uiso   1.00
C662   C     0.60141   0.22343   0.99496   0.00000  Uiso   1.00
C663   C     0.59046   0.20163   0.00708   0.00000  Uiso   1.00
C664   C     0.59665   0.19320   0.03348   0.00000  Uiso   1.00
C665   C     0.61547   0.21025   0.04613   0.00000  Uiso   1.00
C666   C     0.62652   0.23205   0.03410   0.00000  Uiso   1.00
H421   H     0.59438   0.22729   0.97390   0.00000  Uiso   1.00
H422   H     0.57571   0.19006   0.99462   0.00000  Uiso   1.00
H423   H     0.62222   0.20602   0.06735   0.00000  Uiso   1.00
H424   H     0.64116   0.24335   0.04682   0.00000  Uiso   1.00
C667   C     0.61783   0.16627   0.02020   0.00000  Uiso   1.00
C668   C     0.59698   0.15700   0.03256   0.00000  Uiso   1.00
C669   C     0.58873   0.13492   0.03056   0.00000  Uiso   1.00
C670   C     0.59959   0.12388   0.01864   0.00000  Uiso   1.00
C671   C     0.62072   0.13305   0.00640   0.00000  Uiso   1.00
C672   C     0.62877   0.15533   0.00817   0.00000  Uiso   1.00
C673   C     0.58493   0.16901   0.04658   0.00000  Uiso   1.00
C674   C     0.56066   0.15669   0.03386   0.00000  Uiso   1.00
C675   C     0.54230   0.15246   0.05168   0.00000  Uiso   1.00
C676   C     0.52047   0.14156   0.03974   0.00000  Uiso   1.00
C677   C     0.51313   0.13295   0.00767   0.00000  Uiso   1.00
C678   C     0.53180   0.13724   0.98999   0.00000  Uiso   1.00
C679   C     0.55359   0.14811   0.00211   0.00000  Uiso   1.00
C680   C     0.58887   0.15553   0.10736   0.00000  Uiso   1.00
C681   C     0.58925   0.15566   0.14367   0.00000  Uiso   1.00
C682   C     0.58633   0.16942   0.16447   0.00000  Uiso   1.00
C683   C     0.58313   0.18314   0.14384   0.00000  Uiso   1.00
C684   C     0.58273   0.18300   0.10755   0.00000  Uiso   1.00
C685   C     0.58556   0.16917   0.08673   0.00000  Uiso   1.00
C686   C     0.58630   0.16934   0.20464   0.00000  Uiso   1.00
C687   C     0.62206   0.24096   0.24390   0.00000  Uiso   1.00
C688   C     0.60382   0.22327   0.25774   0.00000  Uiso   1.00
C689   C     0.59287   0.20151   0.24565   0.00000  Uiso   1.00
C690   C     0.59812   0.19350   0.21771   0.00000  Uiso   1.00
C691   C     0.61615   0.21088   0.20373   0.00000  Uiso   1.00
C692   C     0.62714   0.23268   0.21563   0.00000  Uiso   1.00
C693   C     0.59856   0.15736   0.21806   0.00000  Uiso   1.00
C694   C     0.59039   0.13528   0.22001   0.00000  Uiso   1.00
C695   C     0.60138   0.12427   0.23160   0.00000  Uiso   1.00
C696   C     0.62259   0.13346   0.24356   0.00000  Uiso   1.00
C697   C     0.63063   0.15574   0.24151   0.00000  Uiso   1.00
C698   C     0.61956   0.16666   0.22978   0.00000  Uiso   1.00
C699   C     0.55512   0.14740   0.24919   0.00000  Uiso   1.00
C700   C     0.53339   0.13638   0.26150   0.00000  Uiso   1.00
C701   C     0.51473   0.13303   0.24462   0.00000  Uiso   1.00
C702   C     0.52206   0.14277   0.21313   0.00000  Uiso   1.00
C703   C     0.54383   0.15374   0.20096   0.00000  Uiso   1.00
C704   C     0.56215   0.15697   0.21794   0.00000  Uiso   1.00
H425   H     0.62644   0.18375   0.02002   0.00000  Uiso   1.00
H426   H     0.57224   0.12543   0.03935   0.00000  Uiso   1.00
H427   H     0.59078   0.10649   0.01900   0.00000  Uiso   1.00
H428   H     0.64514   0.16508   0.99944   0.00000  Uiso   1.00
H429   H     0.54531   0.15825   0.07738   0.00000  Uiso   1.00
H430   H     0.50798   0.13960   0.05703   0.00000  Uiso   1.00
H431   H     0.52914   0.13161   0.96434   0.00000  Uiso   1.00
H432   H     0.56639   0.15020   0.98517   0.00000  Uiso   1.00
H433   H     0.59140   0.14370   0.09431   0.00000  Uiso   1.00
H434   H     0.59201   0.14390   0.15657   0.00000  Uiso   1.00
H435   H     0.58063   0.19498   0.15698   0.00000  Uiso   1.00
H436   H     0.58000   0.19476   0.09451   0.00000  Uiso   1.00
H437   H     0.59758   0.22678   0.28008   0.00000  Uiso   1.00
H438   H     0.57890   0.18959   0.25939   0.00000  Uiso   1.00
H439   H     0.62218   0.20698   0.18135   0.00000  Uiso   1.00
H440   H     0.64102   0.24430   0.20163   0.00000  Uiso   1.00
H441   H     0.57382   0.12577   0.21157   0.00000  Uiso   1.00
H442   H     0.59258   0.10688   0.23138   0.00000  Uiso   1.00
H443   H     0.64708   0.16551   0.24988   0.00000  Uiso   1.00
H444   H     0.62814   0.18413   0.22976   0.00000  Uiso   1.00
H445   H     0.56790   0.14866   0.26547   0.00000  Uiso   1.00
H446   H     0.53071   0.12980   0.28662   0.00000  Uiso   1.00
H447   H     0.50961   0.14171   0.19651   0.00000  Uiso   1.00
H448   H     0.54680   0.16043   0.17576   0.00000  Uiso   1.00
C705   C     0.88390   0.01414   0.25686   0.00000  Uiso   1.00
C706   C     0.90194   0.03190   0.24276   0.00000  Uiso   1.00
C707   C     0.91302   0.05361   0.25505   0.00000  Uiso   1.00
C708   C     0.90805   0.06151   0.28342   0.00000  Uiso   1.00
C709   C     0.89013   0.04409   0.29754   0.00000  Uiso   1.00
C710   C     0.87906   0.02233   0.28549   0.00000  Uiso   1.00
H449   H     0.90795   0.02848   0.22006   0.00000  Uiso   1.00
H450   H     0.92684   0.06557   0.24109   0.00000  Uiso   1.00
H451   H     0.88427   0.04791   0.32020   0.00000  Uiso   1.00
H452   H     0.86533   0.01064   0.29970   0.00000  Uiso   1.00
C711   C     0.88702   0.08855   0.27076   0.00000  Uiso   1.00
C712   C     0.90801   0.09778   0.28251   0.00000  Uiso   1.00
C713   C     0.91641   0.11987   0.27984   0.00000  Uiso   1.00
C714   C     0.90560   0.13095   0.26776   0.00000  Uiso   1.00
C715   C     0.88433   0.12182   0.25611   0.00000  Uiso   1.00
C716   C     0.87612   0.09953   0.25856   0.00000  Uiso   1.00
C717   C     0.91996   0.08565   0.29660   0.00000  Uiso   1.00
C718   C     0.94421   0.09782   0.28377   0.00000  Uiso   1.00
C719   C     0.96245   0.10111   0.30106   0.00000  Uiso   1.00
C720   C     0.98428   0.11199   0.28909   0.00000  Uiso   1.00
C721   C     0.99173   0.12155   0.25753   0.00000  Uiso   1.00
C722   C     0.97314   0.11802   0.24027   0.00000  Uiso   1.00
C723   C     0.95136   0.10714   0.25240   0.00000  Uiso   1.00
C724   C     0.91653   0.09952   0.35714   0.00000  Uiso   1.00
C725   C     0.91613   0.09948   0.39344   0.00000  Uiso   1.00
C726   C     0.91854   0.08544   0.41450   0.00000  Uiso   1.00
C727   C     0.92138   0.07144   0.39411   0.00000  Uiso   1.00
C728   C     0.92186   0.07153   0.35783   0.00000  Uiso   1.00
C729   C     0.91939   0.08554   0.33676   0.00000  Uiso   1.00
C730   C     0.91851   0.08551   0.45467   0.00000  Uiso   1.00
C731   C     0.88232   0.01382   0.49410   0.00000  Uiso   1.00
C732   C     0.90129   0.03114   0.50684   0.00000  Uiso   1.00
C733   C     0.91238   0.05293   0.49471   0.00000  Uiso   1.00
C734   C     0.90658   0.06132   0.46776   0.00000  Uiso   1.00
C735   C     0.88794   0.04425   0.45468   0.00000  Uiso   1.00
C736   C     0.87675   0.02246   0.46673   0.00000  Uiso   1.00
C737   C     0.90633   0.09753   0.46809   0.00000  Uiso   1.00
C738   C     0.91464   0.11960   0.47047   0.00000  Uiso   1.00
C739   C     0.90372   0.13062   0.48224   0.00000  Uiso   1.00
C740   C     0.88244   0.12144   0.49381   0.00000  Uiso   1.00
C741   C     0.87427   0.09916   0.49140   0.00000  Uiso   1.00
C742   C     0.88527   0.08824   0.47957   0.00000  Uiso   1.00
C743   C     0.94960   0.10673   0.49958   0.00000  Uiso   1.00
C744   C     0.97133   0.11764   0.51195   0.00000  Uiso   1.00
C745   C     0.99004   0.12152   0.49478   0.00000  Uiso   1.00
C746   C     0.98280   0.11241   0.46295   0.00000  Uiso   1.00
C747   C     0.96104   0.10152   0.45074   0.00000  Uiso   1.00
C748   C     0.94265   0.09777   0.46801   0.00000  Uiso   1.00
H453   H     0.87830   0.07107   0.27125   0.00000  Uiso   1.00
H454   H     0.93302   0.12934   0.28815   0.00000  Uiso   1.00
H455   H     0.91454   0.14834   0.26750   0.00000  Uiso   1.00
H456   H     0.85963   0.08980   0.25037   0.00000  Uiso   1.00
H457   H     0.95936   0.09457   0.32636   0.00000  Uiso   1.00
H458   H     0.99667   0.11318   0.30595   0.00000  Uiso   1.00
H459   H     0.97589   0.12439   0.21500   0.00000  Uiso   1.00
H460   H     0.93866   0.10579   0.23584   0.00000  Uiso   1.00
H461   H     0.91438   0.11155   0.34385   0.00000  Uiso   1.00
H462   H     0.91375   0.11152   0.40613   0.00000  Uiso   1.00
H463   H     0.92350   0.05941   0.40751   0.00000  Uiso   1.00
H464   H     0.92429   0.05954   0.34507   0.00000  Uiso   1.00
H465   H     0.90801   0.02731   0.52834   0.00000  Uiso   1.00
H466   H     0.92692   0.06454   0.50759   0.00000  Uiso   1.00
H467   H     0.88149   0.04845   0.43305   0.00000  Uiso   1.00
H468   H     0.86230   0.01113   0.45359   0.00000  Uiso   1.00
H469   H     0.93127   0.12911   0.46233   0.00000  Uiso   1.00
H470   H     0.91264   0.14801   0.48242   0.00000  Uiso   1.00
H471   H     0.85775   0.08940   0.49948   0.00000  Uiso   1.00
H472   H     0.87658   0.07077   0.47929   0.00000  Uiso   1.00
H473   H     0.93676   0.10501   0.51611   0.00000  Uiso   1.00
H474   H     0.97394   0.12369   0.53736   0.00000  Uiso   1.00
H475   H     0.99531   0.11394   0.44607   0.00000  Uiso   1.00
H476   H     0.95811   0.09534   0.42526   0.00000  Uiso   1.00
C749   C     0.87064   0.24072   0.00723   0.00000  Uiso   1.00
C750   C     0.85146   0.22344   0.99499   0.00000  Uiso   1.00
C751   C     0.84050   0.20165   0.00710   0.00000  Uiso   1.00
C752   C     0.84666   0.19321   0.03352   0.00000  Uiso   1.00
C753   C     0.86547   0.21025   0.04620   0.00000  Uiso   1.00
C754   C     0.87654   0.23205   0.03418   0.00000  Uiso   1.00
H477   H     0.84445   0.22732   0.97391   0.00000  Uiso   1.00
H478   H     0.82575   0.19008   0.99462   0.00000  Uiso   1.00
H479   H     0.87220   0.20601   0.06744   0.00000  Uiso   1.00
H480   H     0.89118   0.24334   0.04692   0.00000  Uiso   1.00
C755   C     0.86784   0.16630   0.02019   0.00000  Uiso   1.00
C756   C     0.84699   0.15701   0.03256   0.00000  Uiso   1.00
C757   C     0.83875   0.13493   0.03053   0.00000  Uiso   1.00
C758   C     0.84963   0.12391   0.01860   0.00000  Uiso   1.00
C759   C     0.87076   0.13309   0.00637   0.00000  Uiso   1.00
C760   C     0.87879   0.15537   0.00815   0.00000  Uiso   1.00
C761   C     0.83493   0.16901   0.04659   0.00000  Uiso   1.00
C762   C     0.81066   0.15669   0.03387   0.00000  Uiso   1.00
C763   C     0.79230   0.15245   0.05170   0.00000  Uiso   1.00
C764   C     0.77047   0.14154   0.03977   0.00000  Uiso   1.00
C765   C     0.76312   0.13293   0.00771   0.00000  Uiso   1.00
C766   C     0.78180   0.13725   0.99001   0.00000  Uiso   1.00
C767   C     0.80359   0.14813   0.00211   0.00000  Uiso   1.00
C768   C     0.83888   0.15552   0.10737   0.00000  Uiso   1.00
C769   C     0.83925   0.15565   0.14367   0.00000  Uiso   1.00
C770   C     0.83633   0.16941   0.16448   0.00000  Uiso   1.00
C771   C     0.83312   0.18313   0.14385   0.00000  Uiso   1.00
C772   C     0.83273   0.18299   0.10756   0.00000  Uiso   1.00
C773   C     0.83556   0.16916   0.08675   0.00000  Uiso   1.00
C774   C     0.83630   0.16932   0.20465   0.00000  Uiso   1.00
C775   C     0.87212   0.24094   0.24394   0.00000  Uiso   1.00
C776   C     0.85387   0.22326   0.25777   0.00000  Uiso   1.00
C777   C     0.84289   0.20150   0.24567   0.00000  Uiso   1.00
C778   C     0.84813   0.19349   0.21772   0.00000  Uiso   1.00
C779   C     0.86615   0.21086   0.20372   0.00000  Uiso   1.00
C780   C     0.87716   0.23266   0.21564   0.00000  Uiso   1.00
C781   C     0.84857   0.15736   0.21807   0.00000  Uiso   1.00
C782   C     0.84042   0.13528   0.22002   0.00000  Uiso   1.00
C783   C     0.85144   0.12429   0.23161   0.00000  Uiso   1.00
C784   C     0.87264   0.13350   0.24355   0.00000  Uiso   1.00
C785   C     0.88067   0.15578   0.24149   0.00000  Uiso   1.00
C786   C     0.86959   0.16668   0.22977   0.00000  Uiso   1.00
C787   C     0.80513   0.14738   0.24920   0.00000  Uiso   1.00
C788   C     0.78340   0.13635   0.26151   0.00000  Uiso   1.00
C789   C     0.76474   0.13298   0.24464   0.00000  Uiso   1.00
C790   C     0.77206   0.14271   0.21315   0.00000  Uiso   1.00
C791   C     0.79383   0.15371   0.20097   0.00000  Uiso   1.00
C792   C     0.81216   0.15695   0.21796   0.00000  Uiso   1.00
H481   H     0.87644   0.18377   0.02003   0.00000  Uiso   1.00
H482   H     0.82226   0.12543   0.03932   0.00000  Uiso   1.00
H483   H     0.84082   0.10651   0.01894   0.00000  Uiso   1.00
H484   H     0.89517   0.16513   0.99943   0.00000  Uiso   1.00
H485   H     0.79532   0.15824   0.07740   0.00000  Uiso   1.00
H486   H     0.75798   0.13958   0.05707   0.00000  Uiso   1.00
H487   H     0.77914   0.13162   0.96435   0.00000  Uiso   1.00
H488   H     0.81639   0.15023   0.98517   0.00000  Uiso   1.00
H489   H     0.84141   0.14370   0.09431   0.00000  Uiso   1.00
H490   H     0.84202   0.14389   0.15657   0.00000  Uiso   1.00
H491   H     0.83063   0.19496   0.15700   0.00000  Uiso   1.00
H492   H     0.82999   0.19474   0.09453   0.00000  Uiso   1.00
H493   H     0.84763   0.22678   0.28013   0.00000  Uiso   1.00
H494   H     0.82892   0.18959   0.25941   0.00000  Uiso   1.00
H495   H     0.87217   0.20696   0.18133   0.00000  Uiso   1.00
H496   H     0.89104   0.24427   0.20163   0.00000  Uiso   1.00
H497   H     0.82385   0.12576   0.21160   0.00000  Uiso   1.00
H498   H     0.84265   0.10690   0.23140   0.00000  Uiso   1.00
H499   H     0.89712   0.16556   0.24985   0.00000  Uiso   1.00
H500   H     0.87815   0.18415   0.22974   0.00000  Uiso   1.00
H501   H     0.81792   0.14865   0.26549   0.00000  Uiso   1.00
H502   H     0.78073   0.12977   0.28664   0.00000  Uiso   1.00
H503   H     0.75960   0.14165   0.19653   0.00000  Uiso   1.00
H504   H     0.79679   0.16039   0.17577   0.00000  Uiso   1.00
C793   C     0.63379   0.26410   0.25681   0.00000  Uiso   1.00
C794   C     0.65182   0.28188   0.24272   0.00000  Uiso   1.00
C795   C     0.66286   0.30360   0.25499   0.00000  Uiso   1.00
C796   C     0.65786   0.31149   0.28333   0.00000  Uiso   1.00
C797   C     0.63993   0.29406   0.29743   0.00000  Uiso   1.00
C798   C     0.62890   0.27229   0.28539   0.00000  Uiso   1.00
H505   H     0.65787   0.27846   0.22005   0.00000  Uiso   1.00
H506   H     0.67669   0.31556   0.24105   0.00000  Uiso   1.00
H507   H     0.63404   0.29787   0.32006   0.00000  Uiso   1.00
H508   H     0.61517   0.26060   0.29958   0.00000  Uiso   1.00
C799   C     0.63687   0.33862   0.27072   0.00000  Uiso   1.00
C800   C     0.65786   0.34780   0.28248   0.00000  Uiso   1.00
C801   C     0.66631   0.36990   0.27986   0.00000  Uiso   1.00
C802   C     0.65553   0.38103   0.26784   0.00000  Uiso   1.00
C803   C     0.63427   0.37196   0.25619   0.00000  Uiso   1.00
C804   C     0.62602   0.34966   0.25857   0.00000  Uiso   1.00
C805   C     0.66976   0.33562   0.29655   0.00000  Uiso   1.00
C806   C     0.69402   0.34778   0.28374   0.00000  Uiso   1.00
C807   C     0.71225   0.35104   0.30105   0.00000  Uiso   1.00
C808   C     0.73407   0.36188   0.28909   0.00000  Uiso   1.00
C809   C     0.74154   0.37141   0.25751   0.00000  Uiso   1.00
C810   C     0.72297   0.36795   0.24025   0.00000  Uiso   1.00
C811   C     0.70119   0.35711   0.25238   0.00000  Uiso   1.00
C812   C     0.66635   0.34950   0.35709   0.00000  Uiso   1.00
C813   C     0.66598   0.34948   0.39339   0.00000  Uiso   1.00
C814   C     0.66840   0.33545   0.41445   0.00000  Uiso   1.00
C815   C     0.67121   0.32143   0.39406   0.00000  Uiso   1.00
C816   C     0.67165   0.32149   0.35777   0.00000  Uiso   1.00
C817   C     0.66919   0.33551   0.33671   0.00000  Uiso   1.00
C818   C     0.66842   0.33554   0.45462   0.00000  Uiso   1.00
C819   C     0.63240   0.26387   0.49415   0.00000  Uiso   1.00
C820   C     0.65136   0.28123   0.50684   0.00000  Uiso   1.00
C821   C     0.66238   0.30301   0.49468   0.00000  Uiso   1.00
C822   C     0.65652   0.31136   0.46776   0.00000  Uiso   1.00
C823   C     0.63788   0.29426   0.45474   0.00000  Uiso   1.00
C824   C     0.62675   0.27247   0.46682   0.00000  Uiso   1.00
C825   C     0.65626   0.34758   0.46807   0.00000  Uiso   1.00
C826   C     0.66459   0.36966   0.47046   0.00000  Uiso   1.00
C827   C     0.65371   0.38070   0.48229   0.00000  Uiso   1.00
C828   C     0.63244   0.37153   0.49391   0.00000  Uiso   1.00
C829   C     0.62424   0.34925   0.49148   0.00000  Uiso   1.00
C830   C     0.63521   0.33831   0.47959   0.00000  Uiso   1.00
C831   C     0.69954   0.35676   0.49948   0.00000  Uiso   1.00
C832   C     0.72126   0.36762   0.51184   0.00000  Uiso   1.00
C833   C     0.73996   0.37144   0.49468   0.00000  Uiso   1.00
C834   C     0.73270   0.36235   0.46285   0.00000  Uiso   1.00
C835   C     0.71093   0.35150   0.45064   0.00000  Uiso   1.00
C836   C     0.69256   0.34779   0.46791   0.00000  Uiso   1.00
H509   H     0.62812   0.32114   0.27116   0.00000  Uiso   1.00
H510   H     0.68291   0.37932   0.28818   0.00000  Uiso   1.00
H511   H     0.66451   0.39842   0.26763   0.00000  Uiso   1.00
H512   H     0.60952   0.33997   0.25036   0.00000  Uiso   1.00
H513   H     0.70913   0.34451   0.32636   0.00000  Uiso   1.00
H514   H     0.74645   0.36305   0.30596   0.00000  Uiso   1.00
H515   H     0.72573   0.37432   0.21499   0.00000  Uiso   1.00
H516   H     0.68851   0.35578   0.23581   0.00000  Uiso   1.00
H517   H     0.66420   0.36153   0.34380   0.00000  Uiso   1.00
H518   H     0.66363   0.36153   0.40609   0.00000  Uiso   1.00
H519   H     0.67333   0.30939   0.40746   0.00000  Uiso   1.00
H520   H     0.67407   0.30949   0.34501   0.00000  Uiso   1.00
H521   H     0.65813   0.27743   0.52831   0.00000  Uiso   1.00
H522   H     0.67694   0.31464   0.50751   0.00000  Uiso   1.00
H523   H     0.63137   0.29843   0.43314   0.00000  Uiso   1.00
H524   H     0.61230   0.26112   0.45373   0.00000  Uiso   1.00
H525   H     0.68122   0.37914   0.46229   0.00000  Uiso   1.00
H526   H     0.66265   0.39809   0.48248   0.00000  Uiso   1.00
H527   H     0.60773   0.33951   0.49959   0.00000  Uiso   1.00
H528   H     0.62650   0.32084   0.47930   0.00000  Uiso   1.00
H529   H     0.68671   0.35508   0.51600   0.00000  Uiso   1.00
H530   H     0.72388   0.37368   0.53725   0.00000  Uiso   1.00
H531   H     0.74520   0.36385   0.44597   0.00000  Uiso   1.00
H532   H     0.70800   0.34532   0.42516   0.00000  Uiso   1.00
C837   C     0.62020   0.49089   0.00771   0.00000  Uiso   1.00
C838   C     0.60108   0.47355   0.99542   0.00000  Uiso   1.00
C839   C     0.59027   0.45172   0.00739   0.00000  Uiso   1.00
C840   C     0.59655   0.44330   0.03369   0.00000  Uiso   1.00
C841   C     0.61533   0.46038   0.04638   0.00000  Uiso   1.00
C842   C     0.62623   0.48223   0.03451   0.00000  Uiso   1.00
H533   H     0.59399   0.47740   0.97443   0.00000  Uiso   1.00
H534   H     0.57554   0.44011   0.99492   0.00000  Uiso   1.00
H535   H     0.62213   0.45617   0.06753   0.00000  Uiso   1.00
H536   H     0.64085   0.49355   0.04725   0.00000  Uiso   1.00
C843   C     0.61788   0.41642   0.02036   0.00000  Uiso   1.00
C844   C     0.59703   0.40713   0.03274   0.00000  Uiso   1.00
C845   C     0.58880   0.38505   0.03076   0.00000  Uiso   1.00
C846   C     0.59967   0.37402   0.01882   0.00000  Uiso   1.00
C847   C     0.62079   0.38321   0.00652   0.00000  Uiso   1.00
C848   C     0.62883   0.40549   0.00831   0.00000  Uiso   1.00
C849   C     0.58493   0.41910   0.04675   0.00000  Uiso   1.00
C850   C     0.56066   0.40669   0.03407   0.00000  Uiso   1.00
C851   C     0.54228   0.40235   0.05194   0.00000  Uiso   1.00
C852   C     0.52045   0.39137   0.04005   0.00000  Uiso   1.00
C853   C     0.51310   0.38278   0.00797   0.00000  Uiso   1.00
C854   C     0.53179   0.38715   0.99025   0.00000  Uiso   1.00
C855   C     0.55358   0.39810   0.00232   0.00000  Uiso   1.00
C856   C     0.58889   0.40566   0.10757   0.00000  Uiso   1.00
C857   C     0.58926   0.40582   0.14388   0.00000  Uiso   1.00
C858   C     0.58632   0.41958   0.16464   0.00000  Uiso   1.00
C859   C     0.58309   0.43327   0.14397   0.00000  Uiso   1.00
C860   C     0.58270   0.43310   0.10768   0.00000  Uiso   1.00
C861   C     0.58556   0.41927   0.08691   0.00000  Uiso   1.00
C862   C     0.58630   0.41954   0.20482   0.00000  Uiso   1.00
C863   C     0.62179   0.49122   0.24384   0.00000  Uiso   1.00
C864   C     0.60356   0.47351   0.25765   0.00000  Uiso   1.00
C865   C     0.59271   0.45173   0.24565   0.00000  Uiso   1.00
C866   C     0.59805   0.44372   0.21781   0.00000  Uiso   1.00
C867   C     0.61605   0.46112   0.20382   0.00000  Uiso   1.00
C868   C     0.62694   0.48294   0.21564   0.00000  Uiso   1.00
C869   C     0.59859   0.40760   0.21825   0.00000  Uiso   1.00
C870   C     0.59042   0.38552   0.22021   0.00000  Uiso   1.00
C871   C     0.60141   0.37450   0.23177   0.00000  Uiso   1.00
C872   C     0.62262   0.38369   0.24369   0.00000  Uiso   1.00
C873   C     0.63066   0.40597   0.24167   0.00000  Uiso   1.00
C874   C     0.61960   0.41689   0.22997   0.00000  Uiso   1.00
C875   C     0.55517   0.39756   0.24940   0.00000  Uiso   1.00
C876   C     0.53345   0.38650   0.26175   0.00000  Uiso   1.00
C877   C     0.51477   0.38313   0.24492   0.00000  Uiso   1.00
C878   C     0.52206   0.39289   0.21344   0.00000  Uiso   1.00
C879   C     0.54383   0.40390   0.20122   0.00000  Uiso   1.00
C880   C     0.56217   0.40714   0.21815   0.00000  Uiso   1.00
H537   H     0.62647   0.43389   0.02018   0.00000  Uiso   1.00
H538   H     0.57231   0.37555   0.03957   0.00000  Uiso   1.00
H539   H     0.59087   0.35663   0.01918   0.00000  Uiso   1.00
H540   H     0.64519   0.41525   0.99955   0.00000  Uiso   1.00
H541   H     0.54530   0.40813   0.07765   0.00000  Uiso   1.00
H542   H     0.50795   0.38936   0.05737   0.00000  Uiso   1.00
H543   H     0.52912   0.38152   0.96459   0.00000  Uiso   1.00
H544   H     0.56639   0.40026   0.98535   0.00000  Uiso   1.00
H545   H     0.59144   0.39383   0.09455   0.00000  Uiso   1.00
H546   H     0.59204   0.39408   0.15681   0.00000  Uiso   1.00
H547   H     0.58057   0.44511   0.15707   0.00000  Uiso   1.00
H548   H     0.57994   0.44483   0.09460   0.00000  Uiso   1.00
H549   H     0.59726   0.47702   0.27994   0.00000  Uiso   1.00
H550   H     0.57873   0.43980   0.25938   0.00000  Uiso   1.00
H551   H     0.62214   0.45723   0.18150   0.00000  Uiso   1.00
H552   H     0.64081   0.49458   0.20164   0.00000  Uiso   1.00
H553   H     0.57384   0.37601   0.21178   0.00000  Uiso   1.00
H554   H     0.59260   0.35711   0.23155   0.00000  Uiso   1.00
H555   H     0.64712   0.41573   0.25003   0.00000  Uiso   1.00
H556   H     0.62817   0.43437   0.22995   0.00000  Uiso   1.00
H557   H     0.56797   0.39885   0.26565   0.00000  Uiso   1.00
H558   H     0.53080   0.37992   0.28686   0.00000  Uiso   1.00
H559   H     0.50959   0.39183   0.19686   0.00000  Uiso   1.00
H560   H     0.54677   0.41060   0.17603   0.00000  Uiso   1.00
C881   C     0.88389   0.26408   0.25687   0.00000  Uiso   1.00
C882   C     0.90194   0.28183   0.24276   0.00000  Uiso   1.00
C883   C     0.91301   0.30355   0.25503   0.00000  Uiso   1.00
C884   C     0.90804   0.31147   0.28338   0.00000  Uiso   1.00
C885   C     0.89013   0.29405   0.29752   0.00000  Uiso   1.00
C886   C     0.87905   0.27228   0.28549   0.00000  Uiso   1.00
H561   H     0.90795   0.27841   0.22007   0.00000  Uiso   1.00
H562   H     0.92683   0.31551   0.24106   0.00000  Uiso   1.00
H563   H     0.88426   0.29787   0.32017   0.00000  Uiso   1.00
H564   H     0.86533   0.26060   0.29971   0.00000  Uiso   1.00
C887   C     0.88700   0.33850   0.27073   0.00000  Uiso   1.00
C888   C     0.90799   0.34773   0.28247   0.00000  Uiso   1.00
C889   C     0.91640   0.36982   0.27981   0.00000  Uiso   1.00
C890   C     0.90558   0.38090   0.26775   0.00000  Uiso   1.00
C891   C     0.88431   0.37177   0.25611   0.00000  Uiso   1.00
C892   C     0.87610   0.34949   0.25854   0.00000  Uiso   1.00
C893   C     0.91994   0.33560   0.29656   0.00000  Uiso   1.00
C894   C     0.94420   0.34779   0.28371   0.00000  Uiso   1.00
C895   C     0.96244   0.35109   0.30100   0.00000  Uiso   1.00
C896   C     0.98427   0.36199   0.28904   0.00000  Uiso   1.00
C897   C     0.99171   0.37156   0.25748   0.00000  Uiso   1.00
C898   C     0.97312   0.36803   0.24023   0.00000  Uiso   1.00
C899   C     0.95134   0.35713   0.25236   0.00000  Uiso   1.00
C900   C     0.91653   0.34950   0.35707   0.00000  Uiso   1.00
C901   C     0.91614   0.34947   0.39338   0.00000  Uiso   1.00
C902   C     0.91854   0.33544   0.41445   0.00000  Uiso   1.00
C903   C     0.92137   0.32143   0.39408   0.00000  Uiso   1.00
C904   C     0.92184   0.32150   0.35780   0.00000  Uiso   1.00
C905   C     0.91938   0.33551   0.33671   0.00000  Uiso   1.00
C906   C     0.91853   0.33553   0.45462   0.00000  Uiso   1.00
C907   C     0.88247   0.26387   0.49419   0.00000  Uiso   1.00
C908   C     0.90143   0.28123   0.50689   0.00000  Uiso   1.00
C909   C     0.91248   0.30300   0.49471   0.00000  Uiso   1.00
C910   C     0.90664   0.31135   0.46776   0.00000  Uiso   1.00
C911   C     0.88799   0.29426   0.45474   0.00000  Uiso   1.00
C912   C     0.87685   0.27247   0.46683   0.00000  Uiso   1.00
C913   C     0.90634   0.34755   0.46804   0.00000  Uiso   1.00
C914   C     0.91465   0.36962   0.47044   0.00000  Uiso   1.00
C915   C     0.90373   0.38064   0.48222   0.00000  Uiso   1.00
C916   C     0.88245   0.37145   0.49380   0.00000  Uiso   1.00
C917   C     0.87428   0.34917   0.49138   0.00000  Uiso   1.00
C918   C     0.88528   0.33825   0.47953   0.00000  Uiso   1.00
C919   C     0.94963   0.35678   0.49951   0.00000  Uiso   1.00
C920   C     0.97135   0.36767   0.51188   0.00000  Uiso   1.00
C921   C     0.99006   0.37152   0.49471   0.00000  Uiso   1.00
C922   C     0.98281   0.36242   0.46288   0.00000  Uiso   1.00
C923   C     0.96105   0.35154   0.45067   0.00000  Uiso   1.00
C924   C     0.94266   0.34780   0.46794   0.00000  Uiso   1.00
H565   H     0.87828   0.32103   0.27121   0.00000  Uiso   1.00
H566   H     0.93300   0.37929   0.28812   0.00000  Uiso   1.00
H567   H     0.91452   0.39829   0.26750   0.00000  Uiso   1.00
H568   H     0.85961   0.33976   0.25035   0.00000  Uiso   1.00
H569   H     0.95935   0.34454   0.32630   0.00000  Uiso   1.00
H570   H     0.99667   0.36318   0.30590   0.00000  Uiso   1.00
H571   H     0.97586   0.37441   0.21497   0.00000  Uiso   1.00
H572   H     0.93864   0.35576   0.23580   0.00000  Uiso   1.00
H573   H     0.91438   0.36153   0.34377   0.00000  Uiso   1.00
H574   H     0.91377   0.36152   0.40606   0.00000  Uiso   1.00
H575   H     0.92348   0.30940   0.40749   0.00000  Uiso   1.00
H576   H     0.92426   0.30950   0.34505   0.00000  Uiso   1.00
H577   H     0.90819   0.27743   0.52838   0.00000  Uiso   1.00
H578   H     0.92703   0.31464   0.50755   0.00000  Uiso   1.00
H579   H     0.88150   0.29842   0.43312   0.00000  Uiso   1.00
H580   H     0.86240   0.26112   0.45373   0.00000  Uiso   1.00
H581   H     0.93128   0.37913   0.46229   0.00000  Uiso   1.00
H582   H     0.91265   0.39803   0.48242   0.00000  Uiso   1.00
H583   H     0.85777   0.33941   0.49946   0.00000  Uiso   1.00
H584   H     0.87659   0.32078   0.47925   0.00000  Uiso   1.00
H585   H     0.93679   0.35507   0.51603   0.00000  Uiso   1.00
H586   H     0.97396   0.37373   0.53728   0.00000  Uiso   1.00
H587   H     0.99532   0.36394   0.44601   0.00000  Uiso   1.00
H588   H     0.95812   0.34536   0.42520   0.00000  Uiso   1.00
C925   C     0.87059   0.49071   0.00724   0.00000  Uiso   1.00
C926   C     0.85140   0.47342   0.99500   0.00000  Uiso   1.00
C927   C     0.84046   0.45163   0.00711   0.00000  Uiso   1.00
C928   C     0.84664   0.44319   0.03352   0.00000  Uiso   1.00
C929   C     0.86545   0.46024   0.04620   0.00000  Uiso   1.00
C930   C     0.87649   0.48204   0.03418   0.00000  Uiso   1.00
H589   H     0.84439   0.47729   0.97393   0.00000  Uiso   1.00
H590   H     0.82572   0.44005   0.99463   0.00000  Uiso   1.00
H591   H     0.87218   0.45601   0.06743   0.00000  Uiso   1.00
H592   H     0.89113   0.49334   0.04691   0.00000  Uiso   1.00
C931   C     0.86784   0.41630   0.02021   0.00000  Uiso   1.00
C932   C     0.84699   0.40700   0.03257   0.00000  Uiso   1.00
C933   C     0.83876   0.38493   0.03054   0.00000  Uiso   1.00
C934   C     0.84964   0.37391   0.01861   0.00000  Uiso   1.00
C935   C     0.87077   0.38310   0.00637   0.00000  Uiso   1.00
C936   C     0.87880   0.40538   0.00816   0.00000  Uiso   1.00
C937   C     0.83492   0.41900   0.04659   0.00000  Uiso   1.00
C938   C     0.81065   0.40667   0.03386   0.00000  Uiso   1.00
C939   C     0.79229   0.40244   0.05167   0.00000  Uiso   1.00
C940   C     0.77046   0.39155   0.03972   0.00000  Uiso   1.00
C941   C     0.76313   0.38295   0.00765   0.00000  Uiso   1.00
C942   C     0.78181   0.38724   0.98998   0.00000  Uiso   1.00
C943   C     0.80359   0.39810   0.00211   0.00000  Uiso   1.00
C944   C     0.83886   0.40550   0.10737   0.00000  Uiso   1.00
C945   C     0.83924   0.40562   0.14367   0.00000  Uiso   1.00
C946   C     0.83632   0.41938   0.16449   0.00000  Uiso   1.00
C947   C     0.83312   0.43311   0.14386   0.00000  Uiso   1.00
C948   C     0.83273   0.43297   0.10757   0.00000  Uiso   1.00
C949   C     0.83555   0.41914   0.08675   0.00000  Uiso   1.00
C950   C     0.83629   0.41929   0.20466   0.00000  Uiso   1.00
C951   C     0.87206   0.49091   0.24393   0.00000  Uiso   1.00
C952   C     0.85382   0.47323   0.25776   0.00000  Uiso   1.00
C953   C     0.84286   0.45146   0.24567   0.00000  Uiso   1.00
C954   C     0.84811   0.44345   0.21772   0.00000  Uiso   1.00
C955   C     0.86613   0.46084   0.20373   0.00000  Uiso   1.00
C956   C     0.87712   0.48263   0.21564   0.00000  Uiso   1.00
C957   C     0.84856   0.40733   0.21808   0.00000  Uiso   1.00
C958   C     0.84040   0.38525   0.22005   0.00000  Uiso   1.00
C959   C     0.85141   0.37425   0.23164   0.00000  Uiso   1.00
C960   C     0.87262   0.38347   0.24355   0.00000  Uiso   1.00
C961   C     0.88065   0.40574   0.24150   0.00000  Uiso   1.00
C962   C     0.86957   0.41664   0.22977   0.00000  Uiso   1.00
C963   C     0.80510   0.39736   0.24919   0.00000  Uiso   1.00
C964   C     0.78336   0.38636   0.26149   0.00000  Uiso   1.00
C965   C     0.76472   0.38303   0.24461   0.00000  Uiso   1.00
C966   C     0.77205   0.39275   0.21312   0.00000  Uiso   1.00
C967   C     0.79382   0.40371   0.20095   0.00000  Uiso   1.00
C968   C     0.81214   0.40693   0.21794   0.00000  Uiso   1.00
H593   H     0.87643   0.43377   0.02005   0.00000  Uiso   1.00
H594   H     0.82226   0.37542   0.03933   0.00000  Uiso   1.00
H595   H     0.84084   0.35652   0.01895   0.00000  Uiso   1.00
H596   H     0.89517   0.41515   0.99944   0.00000  Uiso   1.00
H597   H     0.79529   0.40823   0.07737   0.00000  Uiso   1.00
H598   H     0.75797   0.38960   0.05700   0.00000  Uiso   1.00
H599   H     0.77915   0.38161   0.96433   0.00000  Uiso   1.00
H600   H     0.81639   0.40019   0.98518   0.00000  Uiso   1.00
H601   H     0.84139   0.39367   0.09431   0.00000  Uiso   1.00
H602   H     0.84200   0.39386   0.15657   0.00000  Uiso   1.00
H603   H     0.83063   0.44495   0.15701   0.00000  Uiso   1.00
H604   H     0.82999   0.44473   0.09454   0.00000  Uiso   1.00
H605   H     0.84758   0.47674   0.28011   0.00000  Uiso   1.00
H606   H     0.82889   0.43955   0.25941   0.00000  Uiso   1.00
H607   H     0.87216   0.45694   0.18135   0.00000  Uiso   1.00
H608   H     0.89100   0.49426   0.20164   0.00000  Uiso   1.00
H609   H     0.82383   0.37572   0.21163   0.00000  Uiso   1.00
H610   H     0.84262   0.35686   0.23143   0.00000  Uiso   1.00
H611   H     0.89711   0.41552   0.24985   0.00000  Uiso   1.00
H612   H     0.87813   0.43412   0.22974   0.00000  Uiso   1.00
H613   H     0.81787   0.39862   0.26548   0.00000  Uiso   1.00
H614   H     0.78068   0.37978   0.28661   0.00000  Uiso   1.00
H615   H     0.75961   0.39171   0.19649   0.00000  Uiso   1.00
H616   H     0.79680   0.41040   0.17575   0.00000  Uiso   1.00
C969   C     0.63383   0.01400   0.75683   0.00000  Uiso   1.00
C970   C     0.65187   0.03179   0.74275   0.00000  Uiso   1.00
C971   C     0.66290   0.05350   0.75506   0.00000  Uiso   1.00
C972   C     0.65790   0.06138   0.78342   0.00000  Uiso   1.00
C973   C     0.63998   0.04394   0.79750   0.00000  Uiso   1.00
C974   C     0.62894   0.02218   0.78543   0.00000  Uiso   1.00
H617   H     0.65791   0.02839   0.72007   0.00000  Uiso   1.00
H618   H     0.67673   0.06547   0.74112   0.00000  Uiso   1.00
H619   H     0.63408   0.04773   0.82014   0.00000  Uiso   1.00
H620   H     0.61521   0.01048   0.79962   0.00000  Uiso   1.00
C975   C     0.63689   0.08845   0.77076   0.00000  Uiso   1.00
C976   C     0.65787   0.09766   0.78254   0.00000  Uiso   1.00
C977   C     0.66629   0.11975   0.77990   0.00000  Uiso   1.00
C978   C     0.65550   0.13086   0.76781   0.00000  Uiso   1.00
C979   C     0.63425   0.12175   0.75613   0.00000  Uiso   1.00
C980   C     0.62602   0.09946   0.75856   0.00000  Uiso   1.00
C981   C     0.66979   0.08551   0.79663   0.00000  Uiso   1.00
C982   C     0.69405   0.09768   0.78381   0.00000  Uiso   1.00
C983   C     0.71229   0.10095   0.80111   0.00000  Uiso   1.00
C984   C     0.73411   0.11181   0.78913   0.00000  Uiso   1.00
C985   C     0.74156   0.12134   0.75756   0.00000  Uiso   1.00
C986   C     0.72298   0.11785   0.74031   0.00000  Uiso   1.00
C987   C     0.70121   0.10700   0.75245   0.00000  Uiso   1.00
C988   C     0.66638   0.09938   0.85717   0.00000  Uiso   1.00
C989   C     0.66601   0.09936   0.89347   0.00000  Uiso   1.00
C990   C     0.66842   0.08532   0.91453   0.00000  Uiso   1.00
C991   C     0.67124   0.07131   0.89414   0.00000  Uiso   1.00
C992   C     0.67170   0.07139   0.85785   0.00000  Uiso   1.00
C993   C     0.66923   0.08539   0.83679   0.00000  Uiso   1.00
C994   C     0.66841   0.08540   0.95470   0.00000  Uiso   1.00
C995   C     0.63230   0.01369   0.99405   0.00000  Uiso   1.00
C996   C     0.65125   0.03103   0.00681   0.00000  Uiso   1.00
C997   C     0.66231   0.05282   0.99471   0.00000  Uiso   1.00
C998   C     0.65649   0.06121   0.96779   0.00000  Uiso   1.00
C999   C     0.63784   0.04414   0.95473   0.00000  Uiso   1.00
C1000  C     0.62669   0.02233   0.96674   0.00000  Uiso   1.00
C1001  C     0.65624   0.09743   0.96813   0.00000  Uiso   1.00
C1002  C     0.66457   0.11951   0.97051   0.00000  Uiso   1.00
C1003  C     0.65367   0.13054   0.98228   0.00000  Uiso   1.00
C1004  C     0.63239   0.12137   0.99385   0.00000  Uiso   1.00
C1005  C     0.62420   0.09909   0.99146   0.00000  Uiso   1.00
C1006  C     0.63519   0.08815   0.97963   0.00000  Uiso   1.00
C1007  C     0.69951   0.10662   0.99959   0.00000  Uiso   1.00
C1008  C     0.72124   0.11751   0.01195   0.00000  Uiso   1.00
C1009  C     0.73995   0.12137   0.99477   0.00000  Uiso   1.00
C1010  C     0.73270   0.11227   0.96295   0.00000  Uiso   1.00
C1011  C     0.71093   0.10138   0.95075   0.00000  Uiso   1.00
C1012  C     0.69255   0.09765   0.96802   0.00000  Uiso   1.00
H621   H     0.62815   0.07098   0.77123   0.00000  Uiso   1.00
H622   H     0.68289   0.12920   0.78822   0.00000  Uiso   1.00
H623   H     0.66447   0.14825   0.76757   0.00000  Uiso   1.00
H624   H     0.60953   0.08975   0.75034   0.00000  Uiso   1.00
H625   H     0.70918   0.09442   0.82642   0.00000  Uiso   1.00
H626   H     0.74650   0.11298   0.80600   0.00000  Uiso   1.00
H627   H     0.72573   0.12421   0.71504   0.00000  Uiso   1.00
H628   H     0.68851   0.10565   0.73588   0.00000  Uiso   1.00
H629   H     0.66423   0.11142   0.84388   0.00000  Uiso   1.00
H630   H     0.66364   0.11140   0.90617   0.00000  Uiso   1.00
H631   H     0.67336   0.05928   0.90754   0.00000  Uiso   1.00
H632   H     0.67412   0.05939   0.84509   0.00000  Uiso   1.00
H633   H     0.65800   0.02720   0.02829   0.00000  Uiso   1.00
H634   H     0.67685   0.06443   0.00759   0.00000  Uiso   1.00
H635   H     0.63137   0.04834   0.93313   0.00000  Uiso   1.00
H636   H     0.61224   0.01100   0.95361   0.00000  Uiso   1.00
H637   H     0.68120   0.12900   0.96236   0.00000  Uiso   1.00
H638   H     0.66259   0.14793   0.98245   0.00000  Uiso   1.00
H639   H     0.60768   0.08934   0.99955   0.00000  Uiso   1.00
H640   H     0.62648   0.07068   0.97936   0.00000  Uiso   1.00
H641   H     0.68668   0.10491   0.01612   0.00000  Uiso   1.00
H642   H     0.72386   0.12357   0.03735   0.00000  Uiso   1.00
H643   H     0.74520   0.11379   0.94606   0.00000  Uiso   1.00
H644   H     0.70800   0.09521   0.92527   0.00000  Uiso   1.00
C1013  C     0.62059   0.24072   0.50718   0.00000  Uiso   1.00
C1014  C     0.60141   0.22343   0.49496   0.00000  Uiso   1.00
C1015  C     0.59046   0.20163   0.50708   0.00000  Uiso   1.00
C1016  C     0.59665   0.19320   0.53348   0.00000  Uiso   1.00
C1017  C     0.61547   0.21025   0.54613   0.00000  Uiso   1.00
C1018  C     0.62652   0.23205   0.53410   0.00000  Uiso   1.00
H645   H     0.59438   0.22729   0.47390   0.00000  Uiso   1.00
H646   H     0.57571   0.19006   0.49462   0.00000  Uiso   1.00
H647   H     0.62222   0.20602   0.56735   0.00000  Uiso   1.00
H648   H     0.64116   0.24334   0.54682   0.00000  Uiso   1.00
C1019  C     0.61783   0.16627   0.52019   0.00000  Uiso   1.00
C1020  C     0.59698   0.15700   0.53256   0.00000  Uiso   1.00
C1021  C     0.58873   0.13492   0.53056   0.00000  Uiso   1.00
C1022  C     0.59959   0.12388   0.51864   0.00000  Uiso   1.00
C1023  C     0.62072   0.13305   0.50640   0.00000  Uiso   1.00
C1024  C     0.62877   0.15533   0.50816   0.00000  Uiso   1.00
C1025  C     0.58493   0.16901   0.54658   0.00000  Uiso   1.00
C1026  C     0.56066   0.15669   0.53386   0.00000  Uiso   1.00
C1027  C     0.54230   0.15246   0.55168   0.00000  Uiso   1.00
C1028  C     0.52047   0.14156   0.53974   0.00000  Uiso   1.00
C1029  C     0.51313   0.13295   0.50767   0.00000  Uiso   1.00
C1030  C     0.53180   0.13725   0.48999   0.00000  Uiso   1.00
C1031  C     0.55359   0.14811   0.50211   0.00000  Uiso   1.00
C1032  C     0.58887   0.15553   0.60736   0.00000  Uiso   1.00
C1033  C     0.58925   0.15566   0.64367   0.00000  Uiso   1.00
C1034  C     0.58633   0.16942   0.66448   0.00000  Uiso   1.00
C1035  C     0.58313   0.18314   0.64384   0.00000  Uiso   1.00
C1036  C     0.58273   0.18300   0.60755   0.00000  Uiso   1.00
C1037  C     0.58556   0.16917   0.58674   0.00000  Uiso   1.00
C1038  C     0.58630   0.16934   0.70464   0.00000  Uiso   1.00
C1039  C     0.62206   0.24096   0.74390   0.00000  Uiso   1.00
C1040  C     0.60382   0.22327   0.75774   0.00000  Uiso   1.00
C1041  C     0.59287   0.20151   0.74565   0.00000  Uiso   1.00
C1042  C     0.59812   0.19350   0.71771   0.00000  Uiso   1.00
C1043  C     0.61615   0.21088   0.70373   0.00000  Uiso   1.00
C1044  C     0.62714   0.23268   0.71563   0.00000  Uiso   1.00
C1045  C     0.59856   0.15736   0.71806   0.00000  Uiso   1.00
C1046  C     0.59039   0.13528   0.72001   0.00000  Uiso   1.00
C1047  C     0.60138   0.12427   0.73160   0.00000  Uiso   1.00
C1048  C     0.62259   0.13346   0.74356   0.00000  Uiso   1.00
C1049  C     0.63063   0.15574   0.74151   0.00000  Uiso   1.00
C1050  C     0.61957   0.16666   0.72978   0.00000  Uiso   1.00
C1051  C     0.55512   0.14740   0.74919   0.00000  Uiso   1.00
C1052  C     0.53339   0.13638   0.76150   0.00000  Uiso   1.00
C1053  C     0.51474   0.13303   0.74462   0.00000  Uiso   1.00
C1054  C     0.52206   0.14277   0.71313   0.00000  Uiso   1.00
C1055  C     0.54383   0.15374   0.70096   0.00000  Uiso   1.00
C1056  C     0.56215   0.15697   0.71794   0.00000  Uiso   1.00
H649   H     0.62644   0.18375   0.52002   0.00000  Uiso   1.00
H650   H     0.57224   0.12543   0.53935   0.00000  Uiso   1.00
H651   H     0.59078   0.10649   0.51900   0.00000  Uiso   1.00
H652   H     0.64514   0.16508   0.49944   0.00000  Uiso   1.00
H653   H     0.54531   0.15825   0.57738   0.00000  Uiso   1.00
H654   H     0.50798   0.13960   0.55703   0.00000  Uiso   1.00
H655   H     0.52914   0.13161   0.46434   0.00000  Uiso   1.00
H656   H     0.56639   0.15020   0.48518   0.00000  Uiso   1.00
H657   H     0.59140   0.14370   0.59431   0.00000  Uiso   1.00
H658   H     0.59201   0.14390   0.65657   0.00000  Uiso   1.00
H659   H     0.58063   0.19498   0.65698   0.00000  Uiso   1.00
H660   H     0.57999   0.19475   0.59451   0.00000  Uiso   1.00
H661   H     0.59758   0.22678   0.78008   0.00000  Uiso   1.00
H662   H     0.57890   0.18959   0.75939   0.00000  Uiso   1.00
H663   H     0.62218   0.20698   0.68135   0.00000  Uiso   1.00
H664   H     0.64102   0.24430   0.70163   0.00000  Uiso   1.00
H665   H     0.57382   0.12577   0.71157   0.00000  Uiso   1.00
H666   H     0.59258   0.10688   0.73138   0.00000  Uiso   1.00
H667   H     0.64708   0.16551   0.74988   0.00000  Uiso   1.00
H668   H     0.62814   0.18413   0.72976   0.00000  Uiso   1.00
H669   H     0.56790   0.14866   0.76547   0.00000  Uiso   1.00
H670   H     0.53071   0.12980   0.78662   0.00000  Uiso   1.00
H671   H     0.50961   0.14171   0.69651   0.00000  Uiso   1.00
H672   H     0.54680   0.16043   0.67576   0.00000  Uiso   1.00
C1057  C     0.88390   0.01414   0.75686   0.00000  Uiso   1.00
C1058  C     0.90194   0.03190   0.74276   0.00000  Uiso   1.00
C1059  C     0.91302   0.05361   0.75505   0.00000  Uiso   1.00
C1060  C     0.90805   0.06152   0.78342   0.00000  Uiso   1.00
C1061  C     0.89013   0.04409   0.79754   0.00000  Uiso   1.00
C1062  C     0.87906   0.02233   0.78549   0.00000  Uiso   1.00
H673   H     0.90795   0.02848   0.72006   0.00000  Uiso   1.00
H674   H     0.92684   0.06557   0.74109   0.00000  Uiso   1.00
H675   H     0.88427   0.04791   0.82020   0.00000  Uiso   1.00
H676   H     0.86533   0.01064   0.79970   0.00000  Uiso   1.00
C1063  C     0.88702   0.08855   0.77076   0.00000  Uiso   1.00
C1064  C     0.90801   0.09778   0.78251   0.00000  Uiso   1.00
C1065  C     0.91642   0.11987   0.77984   0.00000  Uiso   1.00
C1066  C     0.90560   0.13095   0.76776   0.00000  Uiso   1.00
C1067  C     0.88433   0.12182   0.75611   0.00000  Uiso   1.00
C1068  C     0.87612   0.09953   0.75856   0.00000  Uiso   1.00
C1069  C     0.91996   0.08565   0.79661   0.00000  Uiso   1.00
C1070  C     0.94421   0.09782   0.78377   0.00000  Uiso   1.00
C1071  C     0.96245   0.10111   0.80106   0.00000  Uiso   1.00
C1072  C     0.98428   0.11199   0.78909   0.00000  Uiso   1.00
C1073  C     0.99173   0.12155   0.75753   0.00000  Uiso   1.00
C1074  C     0.97314   0.11802   0.74027   0.00000  Uiso   1.00
C1075  C     0.95136   0.10714   0.75240   0.00000  Uiso   1.00
C1076  C     0.91653   0.09952   0.85714   0.00000  Uiso   1.00
C1077  C     0.91613   0.09948   0.89344   0.00000  Uiso   1.00
C1078  C     0.91854   0.08545   0.91450   0.00000  Uiso   1.00
C1079  C     0.92138   0.07144   0.89411   0.00000  Uiso   1.00
C1080  C     0.92186   0.07153   0.85783   0.00000  Uiso   1.00
C1081  C     0.91939   0.08554   0.83676   0.00000  Uiso   1.00
C1082  C     0.91851   0.08551   0.95467   0.00000  Uiso   1.00
C1083  C     0.88232   0.01382   0.99410   0.00000  Uiso   1.00
C1084  C     0.90129   0.03114   0.00684   0.00000  Uiso   1.00
C1085  C     0.91238   0.05293   0.99471   0.00000  Uiso   1.00
C1086  C     0.90658   0.06132   0.96776   0.00000  Uiso   1.00
C1087  C     0.88794   0.04425   0.95468   0.00000  Uiso   1.00
C1088  C     0.87675   0.02246   0.96673   0.00000  Uiso   1.00
C1089  C     0.90633   0.09753   0.96808   0.00000  Uiso   1.00
C1090  C     0.91464   0.11960   0.97047   0.00000  Uiso   1.00
C1091  C     0.90372   0.13062   0.98224   0.00000  Uiso   1.00
C1092  C     0.88244   0.12144   0.99381   0.00000  Uiso   1.00
C1093  C     0.87427   0.09916   0.99140   0.00000  Uiso   1.00
C1094  C     0.88527   0.08824   0.97957   0.00000  Uiso   1.00
C1095  C     0.94960   0.10673   0.99958   0.00000  Uiso   1.00
C1096  C     0.97133   0.11764   0.01195   0.00000  Uiso   1.00
C1097  C     0.99004   0.12152   0.99478   0.00000  Uiso   1.00
C1098  C     0.98280   0.11241   0.96295   0.00000  Uiso   1.00
C1099  C     0.96104   0.10152   0.95074   0.00000  Uiso   1.00
C1100  C     0.94265   0.09777   0.96801   0.00000  Uiso   1.00
H677   H     0.87830   0.07107   0.77125   0.00000  Uiso   1.00
H678   H     0.93302   0.12934   0.78814   0.00000  Uiso   1.00
H679   H     0.91454   0.14834   0.76750   0.00000  Uiso   1.00
H680   H     0.85963   0.08980   0.75037   0.00000  Uiso   1.00
H681   H     0.95936   0.09458   0.82636   0.00000  Uiso   1.00
H682   H     0.99667   0.11318   0.80595   0.00000  Uiso   1.00
H683   H     0.97589   0.12439   0.71500   0.00000  Uiso   1.00
H684   H     0.93866   0.10579   0.73584   0.00000  Uiso   1.00
H685   H     0.91438   0.11155   0.84385   0.00000  Uiso   1.00
H686   H     0.91375   0.11152   0.90614   0.00000  Uiso   1.00
H687   H     0.92350   0.05941   0.90751   0.00000  Uiso   1.00
H688   H     0.92429   0.05954   0.84506   0.00000  Uiso   1.00
H689   H     0.90801   0.02731   0.02834   0.00000  Uiso   1.00
H690   H     0.92692   0.06454   0.00759   0.00000  Uiso   1.00
H691   H     0.88149   0.04845   0.93305   0.00000  Uiso   1.00
H692   H     0.86230   0.01113   0.95359   0.00000  Uiso   1.00
H693   H     0.93127   0.12911   0.96233   0.00000  Uiso   1.00
H694   H     0.91264   0.14801   0.98242   0.00000  Uiso   1.00
H695   H     0.85775   0.08940   0.99948   0.00000  Uiso   1.00
H696   H     0.87658   0.07077   0.97929   0.00000  Uiso   1.00
H697   H     0.93676   0.10501   0.01611   0.00000  Uiso   1.00
H698   H     0.97394   0.12369   0.03736   0.00000  Uiso   1.00
H699   H     0.99531   0.11394   0.94607   0.00000  Uiso   1.00
H700   H     0.95811   0.09534   0.92526   0.00000  Uiso   1.00
C1101  C     0.87064   0.24072   0.50723   0.00000  Uiso   1.00
C1102  C     0.85146   0.22344   0.49499   0.00000  Uiso   1.00
C1103  C     0.84050   0.20165   0.50710   0.00000  Uiso   1.00
C1104  C     0.84666   0.19321   0.53352   0.00000  Uiso   1.00
C1105  C     0.86547   0.21025   0.54620   0.00000  Uiso   1.00
C1106  C     0.87654   0.23205   0.53418   0.00000  Uiso   1.00
H701   H     0.84445   0.22732   0.47391   0.00000  Uiso   1.00
H702   H     0.82575   0.19008   0.49462   0.00000  Uiso   1.00
H703   H     0.87220   0.20601   0.56744   0.00000  Uiso   1.00
H704   H     0.89118   0.24334   0.54692   0.00000  Uiso   1.00
C1107  C     0.86784   0.16630   0.52019   0.00000  Uiso   1.00
C1108  C     0.84699   0.15701   0.53256   0.00000  Uiso   1.00
C1109  C     0.83875   0.13493   0.53053   0.00000  Uiso   1.00
C1110  C     0.84963   0.12391   0.51860   0.00000  Uiso   1.00
C1111  C     0.87076   0.13309   0.50637   0.00000  Uiso   1.00
C1112  C     0.87880   0.15537   0.50815   0.00000  Uiso   1.00
C1113  C     0.83493   0.16901   0.54659   0.00000  Uiso   1.00
C1114  C     0.81066   0.15669   0.53387   0.00000  Uiso   1.00
C1115  C     0.79230   0.15245   0.55170   0.00000  Uiso   1.00
C1116  C     0.77047   0.14154   0.53977   0.00000  Uiso   1.00
C1117  C     0.76312   0.13293   0.50771   0.00000  Uiso   1.00
C1118  C     0.78180   0.13725   0.49001   0.00000  Uiso   1.00
C1119  C     0.80359   0.14813   0.50211   0.00000  Uiso   1.00
C1120  C     0.83888   0.15552   0.60736   0.00000  Uiso   1.00
C1121  C     0.83925   0.15565   0.64367   0.00000  Uiso   1.00
C1122  C     0.83633   0.16941   0.66449   0.00000  Uiso   1.00
C1123  C     0.83312   0.18313   0.64385   0.00000  Uiso   1.00
C1124  C     0.83273   0.18299   0.60756   0.00000  Uiso   1.00
C1125  C     0.83556   0.16916   0.58674   0.00000  Uiso   1.00
C1126  C     0.83630   0.16932   0.70465   0.00000  Uiso   1.00
C1127  C     0.87212   0.24094   0.74394   0.00000  Uiso   1.00
C1128  C     0.85387   0.22326   0.75777   0.00000  Uiso   1.00
C1129  C     0.84289   0.20150   0.74567   0.00000  Uiso   1.00
C1130  C     0.84813   0.19349   0.71772   0.00000  Uiso   1.00
C1131  C     0.86615   0.21086   0.70372   0.00000  Uiso   1.00
C1132  C     0.87716   0.23266   0.71564   0.00000  Uiso   1.00
C1133  C     0.84857   0.15736   0.71807   0.00000  Uiso   1.00
C1134  C     0.84042   0.13528   0.72002   0.00000  Uiso   1.00
C1135  C     0.85144   0.12429   0.73161   0.00000  Uiso   1.00
C1136  C     0.87264   0.13350   0.74355   0.00000  Uiso   1.00
C1137  C     0.88067   0.15578   0.74149   0.00000  Uiso   1.00
C1138  C     0.86959   0.16668   0.72977   0.00000  Uiso   1.00
C1139  C     0.80513   0.14738   0.74920   0.00000  Uiso   1.00
C1140  C     0.78340   0.13635   0.76151   0.00000  Uiso   1.00
C1141  C     0.76474   0.13298   0.74464   0.00000  Uiso   1.00
C1142  C     0.77205   0.14271   0.71315   0.00000  Uiso   1.00
C1143  C     0.79383   0.15371   0.70097   0.00000  Uiso   1.00
C1144  C     0.81215   0.15695   0.71796   0.00000  Uiso   1.00
H705   H     0.87644   0.18377   0.52003   0.00000  Uiso   1.00
H706   H     0.82226   0.12543   0.53932   0.00000  Uiso   1.00
H707   H     0.84082   0.10651   0.51894   0.00000  Uiso   1.00
H708   H     0.89517   0.16513   0.49942   0.00000  Uiso   1.00
H709   H     0.79532   0.15824   0.57740   0.00000  Uiso   1.00
H710   H     0.75798   0.13958   0.55707   0.00000  Uiso   1.00
H711   H     0.77914   0.13162   0.46436   0.00000  Uiso   1.00
H712   H     0.81639   0.15023   0.48517   0.00000  Uiso   1.00
H713   H     0.84141   0.14370   0.59431   0.00000  Uiso   1.00
H714   H     0.84202   0.14389   0.65657   0.00000  Uiso   1.00
H715   H     0.83063   0.19496   0.65700   0.00000  Uiso   1.00
H716   H     0.82999   0.19474   0.59453   0.00000  Uiso   1.00
H717   H     0.84763   0.22678   0.78013   0.00000  Uiso   1.00
H718   H     0.82892   0.18959   0.75941   0.00000  Uiso   1.00
H719   H     0.87217   0.20696   0.68133   0.00000  Uiso   1.00
H720   H     0.89104   0.24427   0.70163   0.00000  Uiso   1.00
H721   H     0.82385   0.12576   0.71160   0.00000  Uiso   1.00
H722   H     0.84265   0.10690   0.73140   0.00000  Uiso   1.00
H723   H     0.89712   0.16556   0.74985   0.00000  Uiso   1.00
H724   H     0.87815   0.18415   0.72974   0.00000  Uiso   1.00
H725   H     0.81792   0.14865   0.76549   0.00000  Uiso   1.00
H726   H     0.78073   0.12977   0.78663   0.00000  Uiso   1.00
H727   H     0.75960   0.14165   0.69653   0.00000  Uiso   1.00
H728   H     0.79679   0.16039   0.67577   0.00000  Uiso   1.00
C1145  C     0.63379   0.26410   0.75681   0.00000  Uiso   1.00
C1146  C     0.65182   0.28188   0.74272   0.00000  Uiso   1.00
C1147  C     0.66286   0.30360   0.75499   0.00000  Uiso   1.00
C1148  C     0.65786   0.31149   0.78333   0.00000  Uiso   1.00
C1149  C     0.63993   0.29406   0.79743   0.00000  Uiso   1.00
C1150  C     0.62890   0.27229   0.78539   0.00000  Uiso   1.00
H729   H     0.65787   0.27846   0.72005   0.00000  Uiso   1.00
H730   H     0.67669   0.31556   0.74105   0.00000  Uiso   1.00
H731   H     0.63404   0.29787   0.82006   0.00000  Uiso   1.00
H732   H     0.61516   0.26060   0.79958   0.00000  Uiso   1.00
C1151  C     0.63687   0.33862   0.77072   0.00000  Uiso   1.00
C1152  C     0.65786   0.34780   0.78248   0.00000  Uiso   1.00
C1153  C     0.66631   0.36990   0.77986   0.00000  Uiso   1.00
C1154  C     0.65553   0.38103   0.76784   0.00000  Uiso   1.00
C1155  C     0.63427   0.37196   0.75619   0.00000  Uiso   1.00
C1156  C     0.62602   0.34966   0.75857   0.00000  Uiso   1.00
C1157  C     0.66976   0.33562   0.79655   0.00000  Uiso   1.00
C1158  C     0.69402   0.34778   0.78374   0.00000  Uiso   1.00
C1159  C     0.71225   0.35104   0.80105   0.00000  Uiso   1.00
C1160  C     0.73407   0.36188   0.78909   0.00000  Uiso   1.00
C1161  C     0.74154   0.37141   0.75751   0.00000  Uiso   1.00
C1162  C     0.72297   0.36795   0.74026   0.00000  Uiso   1.00
C1163  C     0.70119   0.35711   0.75238   0.00000  Uiso   1.00
C1164  C     0.66635   0.34950   0.85709   0.00000  Uiso   1.00
C1165  C     0.66599   0.34948   0.89339   0.00000  Uiso   1.00
C1166  C     0.66840   0.33545   0.91445   0.00000  Uiso   1.00
C1167  C     0.67121   0.32143   0.89406   0.00000  Uiso   1.00
C1168  C     0.67165   0.32149   0.85777   0.00000  Uiso   1.00
C1169  C     0.66919   0.33551   0.83671   0.00000  Uiso   1.00
C1170  C     0.66842   0.33554   0.95462   0.00000  Uiso   1.00
C1171  C     0.63240   0.26387   0.99415   0.00000  Uiso   1.00
C1172  C     0.65136   0.28123   0.00684   0.00000  Uiso   1.00
C1173  C     0.66238   0.30301   0.99468   0.00000  Uiso   1.00
C1174  C     0.65652   0.31136   0.96776   0.00000  Uiso   1.00
C1175  C     0.63788   0.29426   0.95475   0.00000  Uiso   1.00
C1176  C     0.62675   0.27247   0.96682   0.00000  Uiso   1.00
C1177  C     0.65626   0.34758   0.96807   0.00000  Uiso   1.00
C1178  C     0.66459   0.36966   0.97046   0.00000  Uiso   1.00
C1179  C     0.65371   0.38070   0.98229   0.00000  Uiso   1.00
C1180  C     0.63244   0.37154   0.99391   0.00000  Uiso   1.00
C1181  C     0.62424   0.34925   0.99148   0.00000  Uiso   1.00
C1182  C     0.63521   0.33831   0.97959   0.00000  Uiso   1.00
C1183  C     0.69954   0.35676   0.99947   0.00000  Uiso   1.00
C1184  C     0.72126   0.36762   0.01184   0.00000  Uiso   1.00
C1185  C     0.73996   0.37144   0.99468   0.00000  Uiso   1.00
C1186  C     0.73270   0.36235   0.96285   0.00000  Uiso   1.00
C1187  C     0.71094   0.35150   0.95064   0.00000  Uiso   1.00
C1188  C     0.69256   0.34779   0.96791   0.00000  Uiso   1.00
H733   H     0.62812   0.32114   0.77116   0.00000  Uiso   1.00
H734   H     0.68291   0.37932   0.78818   0.00000  Uiso   1.00
H735   H     0.66451   0.39842   0.76762   0.00000  Uiso   1.00
H736   H     0.60952   0.33997   0.75036   0.00000  Uiso   1.00
H737   H     0.70913   0.34451   0.82636   0.00000  Uiso   1.00
H738   H     0.74645   0.36305   0.80596   0.00000  Uiso   1.00
H739   H     0.72573   0.37432   0.71499   0.00000  Uiso   1.00
H740   H     0.68851   0.35578   0.73581   0.00000  Uiso   1.00
H741   H     0.66420   0.36153   0.84380   0.00000  Uiso   1.00
H742   H     0.66363   0.36153   0.90609   0.00000  Uiso   1.00
H743   H     0.67333   0.30939   0.90746   0.00000  Uiso   1.00
H744   H     0.67407   0.30949   0.84501   0.00000  Uiso   1.00
H745   H     0.65813   0.27743   0.02831   0.00000  Uiso   1.00
H746   H     0.67694   0.31464   0.00751   0.00000  Uiso   1.00
H747   H     0.63137   0.29843   0.93314   0.00000  Uiso   1.00
H748   H     0.61230   0.26112   0.95373   0.00000  Uiso   1.00
H749   H     0.68122   0.37915   0.96229   0.00000  Uiso   1.00
H750   H     0.66265   0.39809   0.98248   0.00000  Uiso   1.00
H751   H     0.60773   0.33951   0.99959   0.00000  Uiso   1.00
H752   H     0.62650   0.32084   0.97930   0.00000  Uiso   1.00
H753   H     0.68671   0.35507   0.01600   0.00000  Uiso   1.00
H754   H     0.72388   0.37368   0.03725   0.00000  Uiso   1.00
H755   H     0.74520   0.36385   0.94597   0.00000  Uiso   1.00
H756   H     0.70800   0.34532   0.92516   0.00000  Uiso   1.00
C1189  C     0.62020   0.49089   0.50771   0.00000  Uiso   1.00
C1190  C     0.60107   0.47355   0.49542   0.00000  Uiso   1.00
C1191  C     0.59027   0.45172   0.50739   0.00000  Uiso   1.00
C1192  C     0.59655   0.44330   0.53369   0.00000  Uiso   1.00
C1193  C     0.61532   0.46038   0.54638   0.00000  Uiso   1.00
C1194  C     0.62623   0.48222   0.53451   0.00000  Uiso   1.00
H757   H     0.59399   0.47740   0.47443   0.00000  Uiso   1.00
H758   H     0.57554   0.44011   0.49492   0.00000  Uiso   1.00
H759   H     0.62213   0.45617   0.56753   0.00000  Uiso   1.00
H760   H     0.64085   0.49355   0.54725   0.00000  Uiso   1.00
C1195  C     0.61788   0.41642   0.52036   0.00000  Uiso   1.00
C1196  C     0.59703   0.40713   0.53273   0.00000  Uiso   1.00
C1197  C     0.58880   0.38505   0.53075   0.00000  Uiso   1.00
C1198  C     0.59967   0.37402   0.51882   0.00000  Uiso   1.00
C1199  C     0.62079   0.38321   0.50652   0.00000  Uiso   1.00
C1200  C     0.62883   0.40549   0.50830   0.00000  Uiso   1.00
C1201  C     0.58493   0.41910   0.54675   0.00000  Uiso   1.00
C1202  C     0.56066   0.40669   0.53407   0.00000  Uiso   1.00
C1203  C     0.54228   0.40235   0.55194   0.00000  Uiso   1.00
C1204  C     0.52045   0.39137   0.54005   0.00000  Uiso   1.00
C1205  C     0.51310   0.38278   0.50797   0.00000  Uiso   1.00
C1206  C     0.53179   0.38715   0.49025   0.00000  Uiso   1.00
C1207  C     0.55358   0.39811   0.50232   0.00000  Uiso   1.00
C1208  C     0.58889   0.40566   0.60757   0.00000  Uiso   1.00
C1209  C     0.58926   0.40582   0.64388   0.00000  Uiso   1.00
C1210  C     0.58632   0.41958   0.66464   0.00000  Uiso   1.00
C1211  C     0.58309   0.43327   0.64397   0.00000  Uiso   1.00
C1212  C     0.58270   0.43310   0.60768   0.00000  Uiso   1.00
C1213  C     0.58556   0.41927   0.58690   0.00000  Uiso   1.00
C1214  C     0.58631   0.41954   0.70481   0.00000  Uiso   1.00
C1215  C     0.62179   0.49122   0.74384   0.00000  Uiso   1.00
C1216  C     0.60356   0.47351   0.75765   0.00000  Uiso   1.00
C1217  C     0.59271   0.45173   0.74565   0.00000  Uiso   1.00
C1218  C     0.59805   0.44372   0.71781   0.00000  Uiso   1.00
C1219  C     0.61605   0.46113   0.70382   0.00000  Uiso   1.00
C1220  C     0.62694   0.48294   0.71563   0.00000  Uiso   1.00
C1221  C     0.59859   0.40760   0.71825   0.00000  Uiso   1.00
C1222  C     0.59042   0.38552   0.72021   0.00000  Uiso   1.00
C1223  C     0.60141   0.37450   0.73177   0.00000  Uiso   1.00
C1224  C     0.62262   0.38369   0.74369   0.00000  Uiso   1.00
C1225  C     0.63066   0.40597   0.74167   0.00000  Uiso   1.00
C1226  C     0.61960   0.41689   0.72996   0.00000  Uiso   1.00
C1227  C     0.55517   0.39756   0.74940   0.00000  Uiso   1.00
C1228  C     0.53345   0.38650   0.76175   0.00000  Uiso   1.00
C1229  C     0.51477   0.38313   0.74492   0.00000  Uiso   1.00
C1230  C     0.52206   0.39289   0.71344   0.00000  Uiso   1.00
C1231  C     0.54382   0.40390   0.70122   0.00000  Uiso   1.00
C1232  C     0.56217   0.40714   0.71815   0.00000  Uiso   1.00
H761   H     0.62647   0.43389   0.52018   0.00000  Uiso   1.00
H762   H     0.57231   0.37555   0.53957   0.00000  Uiso   1.00
H763   H     0.59087   0.35663   0.51918   0.00000  Uiso   1.00
H764   H     0.64519   0.41525   0.49955   0.00000  Uiso   1.00
H765   H     0.54529   0.40813   0.57765   0.00000  Uiso   1.00
H766   H     0.50795   0.38936   0.55737   0.00000  Uiso   1.00
H767   H     0.52913   0.38153   0.46460   0.00000  Uiso   1.00
H768   H     0.56640   0.40026   0.48536   0.00000  Uiso   1.00
H769   H     0.59144   0.39383   0.59456   0.00000  Uiso   1.00
H770   H     0.59204   0.39408   0.65682   0.00000  Uiso   1.00
H771   H     0.58057   0.44511   0.65707   0.00000  Uiso   1.00
H772   H     0.57994   0.44483   0.59460   0.00000  Uiso   1.00
H773   H     0.59726   0.47702   0.77994   0.00000  Uiso   1.00
H774   H     0.57873   0.43980   0.75937   0.00000  Uiso   1.00
H775   H     0.62214   0.45723   0.68150   0.00000  Uiso   1.00
H776   H     0.64081   0.49458   0.70164   0.00000  Uiso   1.00
H777   H     0.57384   0.37601   0.71178   0.00000  Uiso   1.00
H778   H     0.59260   0.35711   0.73155   0.00000  Uiso   1.00
H779   H     0.64712   0.41573   0.75003   0.00000  Uiso   1.00
H780   H     0.62817   0.43437   0.72995   0.00000  Uiso   1.00
H781   H     0.56798   0.39885   0.76565   0.00000  Uiso   1.00
H782   H     0.53080   0.37992   0.78686   0.00000  Uiso   1.00
H783   H     0.50959   0.39183   0.69686   0.00000  Uiso   1.00
H784   H     0.54677   0.41060   0.67603   0.00000  Uiso   1.00
C1233  C     0.88389   0.26408   0.75687   0.00000  Uiso   1.00
C1234  C     0.90194   0.28183   0.74276   0.00000  Uiso   1.00
C1235  C     0.91301   0.30355   0.75503   0.00000  Uiso   1.00
C1236  C     0.90804   0.31147   0.78338   0.00000  Uiso   1.00
C1237  C     0.89013   0.29405   0.79752   0.00000  Uiso   1.00
C1238  C     0.87905   0.27228   0.78549   0.00000  Uiso   1.00
H785   H     0.90795   0.27841   0.72007   0.00000  Uiso   1.00
H786   H     0.92683   0.31551   0.74106   0.00000  Uiso   1.00
H787   H     0.88426   0.29787   0.82017   0.00000  Uiso   1.00
H788   H     0.86533   0.26060   0.79971   0.00000  Uiso   1.00
C1239  C     0.88700   0.33850   0.77073   0.00000  Uiso   1.00
C1240  C     0.90799   0.34773   0.78247   0.00000  Uiso   1.00
C1241  C     0.91640   0.36982   0.77981   0.00000  Uiso   1.00
C1242  C     0.90558   0.38090   0.76775   0.00000  Uiso   1.00
C1243  C     0.88431   0.37177   0.75611   0.00000  Uiso   1.00
C1244  C     0.87610   0.34949   0.75854   0.00000  Uiso   1.00
C1245  C     0.91994   0.33560   0.79656   0.00000  Uiso   1.00
C1246  C     0.94419   0.34779   0.78371   0.00000  Uiso   1.00
C1247  C     0.96244   0.35109   0.80100   0.00000  Uiso   1.00
C1248  C     0.98427   0.36199   0.78904   0.00000  Uiso   1.00
C1249  C     0.99171   0.37157   0.75748   0.00000  Uiso   1.00
C1250  C     0.97312   0.36803   0.74023   0.00000  Uiso   1.00
C1251  C     0.95134   0.35713   0.75236   0.00000  Uiso   1.00
C1252  C     0.91653   0.34950   0.85707   0.00000  Uiso   1.00
C1253  C     0.91613   0.34947   0.89338   0.00000  Uiso   1.00
C1254  C     0.91854   0.33544   0.91445   0.00000  Uiso   1.00
C1255  C     0.92137   0.32143   0.89408   0.00000  Uiso   1.00
C1256  C     0.92184   0.32150   0.85780   0.00000  Uiso   1.00
C1257  C     0.91938   0.33551   0.83671   0.00000  Uiso   1.00
C1258  C     0.91853   0.33553   0.95462   0.00000  Uiso   1.00
C1259  C     0.88247   0.26387   0.99419   0.00000  Uiso   1.00
C1260  C     0.90143   0.28123   0.00689   0.00000  Uiso   1.00
C1261  C     0.91248   0.30300   0.99471   0.00000  Uiso   1.00
C1262  C     0.90664   0.31135   0.96776   0.00000  Uiso   1.00
C1263  C     0.88799   0.29426   0.95474   0.00000  Uiso   1.00
C1264  C     0.87685   0.27247   0.96683   0.00000  Uiso   1.00
C1265  C     0.90634   0.34755   0.96804   0.00000  Uiso   1.00
C1266  C     0.91465   0.36962   0.97044   0.00000  Uiso   1.00
C1267  C     0.90373   0.38064   0.98223   0.00000  Uiso   1.00
C1268  C     0.88245   0.37145   0.99380   0.00000  Uiso   1.00
C1269  C     0.87428   0.34917   0.99138   0.00000  Uiso   1.00
C1270  C     0.88528   0.33825   0.97953   0.00000  Uiso   1.00
C1271  C     0.94963   0.35678   0.99951   0.00000  Uiso   1.00
C1272  C     0.97135   0.36767   0.01188   0.00000  Uiso   1.00
C1273  C     0.99006   0.37152   0.99471   0.00000  Uiso   1.00
C1274  C     0.98282   0.36242   0.96288   0.00000  Uiso   1.00
C1275  C     0.96105   0.35154   0.95067   0.00000  Uiso   1.00
C1276  C     0.94267   0.34780   0.96794   0.00000  Uiso   1.00
H789   H     0.87828   0.32103   0.77121   0.00000  Uiso   1.00
H790   H     0.93300   0.37929   0.78812   0.00000  Uiso   1.00
H791   H     0.91452   0.39829   0.76750   0.00000  Uiso   1.00
H792   H     0.85961   0.33976   0.75035   0.00000  Uiso   1.00
H793   H     0.95935   0.34454   0.82630   0.00000  Uiso   1.00
H794   H     0.99667   0.36318   0.80590   0.00000  Uiso   1.00
H795   H     0.97586   0.37441   0.71497   0.00000  Uiso   1.00
H796   H     0.93864   0.35576   0.73580   0.00000  Uiso   1.00
H797   H     0.91438   0.36153   0.84377   0.00000  Uiso   1.00
H798   H     0.91377   0.36152   0.90606   0.00000  Uiso   1.00
H799   H     0.92348   0.30940   0.90749   0.00000  Uiso   1.00
H800   H     0.92426   0.30950   0.84505   0.00000  Uiso   1.00
H801   H     0.90819   0.27743   0.02838   0.00000  Uiso   1.00
H802   H     0.92703   0.31464   0.00755   0.00000  Uiso   1.00
H803   H     0.88150   0.29842   0.93312   0.00000  Uiso   1.00
H804   H     0.86240   0.26112   0.95373   0.00000  Uiso   1.00
H805   H     0.93128   0.37913   0.96229   0.00000  Uiso   1.00
H806   H     0.91265   0.39803   0.98242   0.00000  Uiso   1.00
H807   H     0.85777   0.33941   0.99946   0.00000  Uiso   1.00
H808   H     0.87659   0.32078   0.97925   0.00000  Uiso   1.00
H809   H     0.93679   0.35507   0.01603   0.00000  Uiso   1.00
H810   H     0.97396   0.37373   0.03728   0.00000  Uiso   1.00
H811   H     0.99532   0.36394   0.94601   0.00000  Uiso   1.00
H812   H     0.95812   0.34536   0.92520   0.00000  Uiso   1.00
C1277  C     0.87059   0.49071   0.50724   0.00000  Uiso   1.00
C1278  C     0.85141   0.47342   0.49500   0.00000  Uiso   1.00
C1279  C     0.84046   0.45163   0.50711   0.00000  Uiso   1.00
C1280  C     0.84664   0.44319   0.53352   0.00000  Uiso   1.00
C1281  C     0.86545   0.46024   0.54620   0.00000  Uiso   1.00
C1282  C     0.87649   0.48204   0.53418   0.00000  Uiso   1.00
H813   H     0.84439   0.47729   0.47393   0.00000  Uiso   1.00
H814   H     0.82572   0.44005   0.49464   0.00000  Uiso   1.00
H815   H     0.87218   0.45601   0.56743   0.00000  Uiso   1.00
H816   H     0.89113   0.49334   0.54691   0.00000  Uiso   1.00
C1283  C     0.86784   0.41630   0.52021   0.00000  Uiso   1.00
C1284  C     0.84699   0.40700   0.53256   0.00000  Uiso   1.00
C1285  C     0.83876   0.38493   0.53054   0.00000  Uiso   1.00
C1286  C     0.84964   0.37391   0.51862   0.00000  Uiso   1.00
C1287  C     0.87077   0.38310   0.50637   0.00000  Uiso   1.00
C1288  C     0.87880   0.40538   0.50816   0.00000  Uiso   1.00
C1289  C     0.83492   0.41900   0.54659   0.00000  Uiso   1.00
C1290  C     0.81065   0.40667   0.53386   0.00000  Uiso   1.00
C1291  C     0.79229   0.40244   0.55167   0.00000  Uiso   1.00
C1292  C     0.77046   0.39155   0.53972   0.00000  Uiso   1.00
C1293  C     0.76313   0.38295   0.50764   0.00000  Uiso   1.00
C1294  C     0.78181   0.38724   0.48998   0.00000  Uiso   1.00
C1295  C     0.80359   0.39810   0.50211   0.00000  Uiso   1.00
C1296  C     0.83886   0.40550   0.60736   0.00000  Uiso   1.00
C1297  C     0.83924   0.40562   0.64367   0.00000  Uiso   1.00
C1298  C     0.83632   0.41938   0.66449   0.00000  Uiso   1.00
C1299  C     0.83312   0.43311   0.64386   0.00000  Uiso   1.00
C1300  C     0.83272   0.43297   0.60757   0.00000  Uiso   1.00
C1301  C     0.83555   0.41914   0.58675   0.00000  Uiso   1.00
C1302  C     0.83629   0.41929   0.70466   0.00000  Uiso   1.00
C1303  C     0.87206   0.49091   0.74393   0.00000  Uiso   1.00
C1304  C     0.85382   0.47323   0.75776   0.00000  Uiso   1.00
C1305  C     0.84286   0.45146   0.74567   0.00000  Uiso   1.00
C1306  C     0.84811   0.44345   0.71772   0.00000  Uiso   1.00
C1307  C     0.86613   0.46084   0.70373   0.00000  Uiso   1.00
C1308  C     0.87712   0.48263   0.71564   0.00000  Uiso   1.00
C1309  C     0.84856   0.40733   0.71808   0.00000  Uiso   1.00
C1310  C     0.84040   0.38525   0.72005   0.00000  Uiso   1.00
C1311  C     0.85141   0.37425   0.73164   0.00000  Uiso   1.00
C1312  C     0.87262   0.38347   0.74355   0.00000  Uiso   1.00
C1313  C     0.88066   0.40574   0.74150   0.00000  Uiso   1.00
C1314  C     0.86957   0.41664   0.72977   0.00000  Uiso   1.00
C1315  C     0.80510   0.39736   0.74919   0.00000  Uiso   1.00
C1316  C     0.78336   0.38636   0.76149   0.00000  Uiso   1.00
C1317  C     0.76472   0.38303   0.74461   0.00000  Uiso   1.00
C1318  C     0.77205   0.39275   0.71312   0.00000  Uiso   1.00
C1319  C     0.79382   0.40371   0.70095   0.00000  Uiso   1.00
C1320  C     0.81214   0.40693   0.71795   0.00000  Uiso   1.00
H817   H     0.87643   0.43377   0.52005   0.00000  Uiso   1.00
H818   H     0.82226   0.37542   0.53933   0.00000  Uiso   1.00
H819   H     0.84084   0.35652   0.51895   0.00000  Uiso   1.00
H820   H     0.89517   0.41514   0.49944   0.00000  Uiso   1.00
H821   H     0.79530   0.40823   0.57737   0.00000  Uiso   1.00
H822   H     0.75797   0.38960   0.55700   0.00000  Uiso   1.00
H823   H     0.77915   0.38161   0.46433   0.00000  Uiso   1.00
H824   H     0.81639   0.40019   0.48518   0.00000  Uiso   1.00
H825   H     0.84139   0.39367   0.59430   0.00000  Uiso   1.00
H826   H     0.84200   0.39386   0.65657   0.00000  Uiso   1.00
H827   H     0.83063   0.44495   0.65701   0.00000  Uiso   1.00
H828   H     0.82998   0.44473   0.59455   0.00000  Uiso   1.00
H829   H     0.84758   0.47673   0.78011   0.00000  Uiso   1.00
H830   H     0.82889   0.43955   0.75941   0.00000  Uiso   1.00
H831   H     0.87216   0.45694   0.68135   0.00000  Uiso   1.00
H832   H     0.89100   0.49426   0.70164   0.00000  Uiso   1.00
H833   H     0.82383   0.37573   0.71163   0.00000  Uiso   1.00
H834   H     0.84262   0.35686   0.73143   0.00000  Uiso   1.00
H835   H     0.89711   0.41552   0.74984   0.00000  Uiso   1.00
H836   H     0.87814   0.43412   0.72974   0.00000  Uiso   1.00
H837   H     0.81787   0.39862   0.76548   0.00000  Uiso   1.00
H838   H     0.78068   0.37978   0.78661   0.00000  Uiso   1.00
H839   H     0.75961   0.39170   0.69649   0.00000  Uiso   1.00
H840   H     0.79680   0.41040   0.67575   0.00000  Uiso   1.00
C1321  C     0.13428   0.51438   0.25659   0.00000  Uiso   1.00
C1322  C     0.15222   0.53222   0.24242   0.00000  Uiso   1.00
C1323  C     0.16322   0.55393   0.25473   0.00000  Uiso   1.00
C1324  C     0.15830   0.56175   0.28325   0.00000  Uiso   1.00
C1325  C     0.14046   0.54425   0.29741   0.00000  Uiso   1.00
C1326  C     0.12946   0.52250   0.28534   0.00000  Uiso   1.00
H841   H     0.15819   0.52886   0.21962   0.00000  Uiso   1.00
H842   H     0.17696   0.56598   0.24073   0.00000  Uiso   1.00
H843   H     0.13461   0.54800   0.32014   0.00000  Uiso   1.00
H844   H     0.11581   0.51076   0.29962   0.00000  Uiso   1.00
C1327  C     0.13732   0.58866   0.26993   0.00000  Uiso   1.00
C1328  C     0.15816   0.59792   0.28240   0.00000  Uiso   1.00
C1329  C     0.16637   0.62001   0.28037   0.00000  Uiso   1.00
C1330  C     0.15551   0.63105   0.26831   0.00000  Uiso   1.00
C1331  C     0.13438   0.62188   0.25601   0.00000  Uiso   1.00
C1332  C     0.12638   0.59960   0.25775   0.00000  Uiso   1.00
C1333  C     0.17007   0.58581   0.29657   0.00000  Uiso   1.00
C1334  C     0.19457   0.59819   0.28422   0.00000  Uiso   1.00
C1335  C     0.21231   0.60051   0.30166   0.00000  Uiso   1.00
C1336  C     0.23445   0.61176   0.29034   0.00000  Uiso   1.00
C1337  C     0.24193   0.62220   0.26003   0.00000  Uiso   1.00
C1338  C     0.22421   0.61978   0.24251   0.00000  Uiso   1.00
C1339  C     0.20206   0.60848   0.25375   0.00000  Uiso   1.00
C1340  C     0.16659   0.59964   0.35707   0.00000  Uiso   1.00
C1341  C     0.16625   0.59964   0.39336   0.00000  Uiso   1.00
C1342  C     0.16862   0.58558   0.41444   0.00000  Uiso   1.00
C1343  C     0.17131   0.57148   0.39402   0.00000  Uiso   1.00
C1344  C     0.17168   0.57151   0.35776   0.00000  Uiso   1.00
C1345  C     0.16935   0.58561   0.33666   0.00000  Uiso   1.00
C1346  C     0.16864   0.58569   0.45455   0.00000  Uiso   1.00
C1347  C     0.13266   0.51407   0.49415   0.00000  Uiso   1.00
C1348  C     0.15151   0.53148   0.50701   0.00000  Uiso   1.00
C1349  C     0.16255   0.55325   0.49485   0.00000  Uiso   1.00
C1350  C     0.15681   0.56156   0.46771   0.00000  Uiso   1.00
C1351  C     0.13825   0.54441   0.45455   0.00000  Uiso   1.00
C1352  C     0.12713   0.52263   0.46662   0.00000  Uiso   1.00
C1353  C     0.15643   0.59765   0.46791   0.00000  Uiso   1.00
C1354  C     0.16458   0.61973   0.46981   0.00000  Uiso   1.00
C1355  C     0.15361   0.63071   0.48150   0.00000  Uiso   1.00
C1356  C     0.13244   0.62149   0.49356   0.00000  Uiso   1.00
C1357  C     0.12442   0.59922   0.49165   0.00000  Uiso   1.00
C1358  C     0.13546   0.58833   0.47987   0.00000  Uiso   1.00
C1359  C     0.19966   0.60751   0.49915   0.00000  Uiso   1.00
C1360  C     0.22157   0.61874   0.51149   0.00000  Uiso   1.00
C1361  C     0.23976   0.62210   0.49443   0.00000  Uiso   1.00
C1362  C     0.23303   0.61266   0.46333   0.00000  Uiso   1.00
C1363  C     0.21113   0.60145   0.45093   0.00000  Uiso   1.00
C1364  C     0.19291   0.59814   0.46795   0.00000  Uiso   1.00
H845   H     0.12877   0.57118   0.26985   0.00000  Uiso   1.00
H846   H     0.18283   0.62952   0.28925   0.00000  Uiso   1.00
H847   H     0.16429   0.64844   0.26865   0.00000  Uiso   1.00
H848   H     0.11003   0.58984   0.24896   0.00000  Uiso   1.00
H849   H     0.20879   0.59308   0.32628   0.00000  Uiso   1.00
H850   H     0.24669   0.61226   0.30702   0.00000  Uiso   1.00
H851   H     0.22759   0.62722   0.21787   0.00000  Uiso   1.00
H852   H     0.18968   0.60785   0.23728   0.00000  Uiso   1.00
H853   H     0.16453   0.61174   0.34380   0.00000  Uiso   1.00
H854   H     0.16397   0.61174   0.40604   0.00000  Uiso   1.00
H855   H     0.17336   0.55941   0.40741   0.00000  Uiso   1.00
H856   H     0.17401   0.55945   0.34500   0.00000  Uiso   1.00
H857   H     0.15818   0.52772   0.52866   0.00000  Uiso   1.00
H858   H     0.17700   0.56494   0.50783   0.00000  Uiso   1.00
H859   H     0.13184   0.54855   0.43280   0.00000  Uiso   1.00
H860   H     0.11276   0.51124   0.45337   0.00000  Uiso   1.00
H861   H     0.18113   0.62927   0.46128   0.00000  Uiso   1.00
H862   H     0.16240   0.64811   0.48124   0.00000  Uiso   1.00
H863   H     0.10800   0.58943   0.50016   0.00000  Uiso   1.00
H864   H     0.12690   0.57086   0.48001   0.00000  Uiso   1.00
H865   H     0.18683   0.60606   0.51533   0.00000  Uiso   1.00
H866   H     0.22434   0.62532   0.53665   0.00000  Uiso   1.00
H867   H     0.24571   0.61400   0.44690   0.00000  Uiso   1.00
H868   H     0.20820   0.59484   0.42580   0.00000  Uiso   1.00
C1365  C     0.12065   0.74076   0.00717   0.00000  Uiso   1.00
C1366  C     0.10147   0.72348   0.99494   0.00000  Uiso   1.00
C1367  C     0.09051   0.70168   0.00705   0.00000  Uiso   1.00
C1368  C     0.09669   0.69325   0.03346   0.00000  Uiso   1.00
C1369  C     0.11551   0.71029   0.04613   0.00000  Uiso   1.00
C1370  C     0.12657   0.73209   0.03410   0.00000  Uiso   1.00
H869   H     0.09445   0.72735   0.97387   0.00000  Uiso   1.00
H870   H     0.07577   0.69012   0.99458   0.00000  Uiso   1.00
H871   H     0.12225   0.70605   0.06735   0.00000  Uiso   1.00
H872   H     0.14121   0.74338   0.04683   0.00000  Uiso   1.00
C1371  C     0.11782   0.66634   0.01994   0.00000  Uiso   1.00
C1372  C     0.09700   0.65705   0.03246   0.00000  Uiso   1.00
C1373  C     0.08878   0.63497   0.03047   0.00000  Uiso   1.00
C1374  C     0.09963   0.62394   0.01847   0.00000  Uiso   1.00
C1375  C     0.12074   0.63313   0.00613   0.00000  Uiso   1.00
C1376  C     0.12875   0.65541   0.00782   0.00000  Uiso   1.00
C1377  C     0.08497   0.66905   0.04655   0.00000  Uiso   1.00
C1378  C     0.06069   0.65673   0.03383   0.00000  Uiso   1.00
C1379  C     0.04233   0.65248   0.05166   0.00000  Uiso   1.00
C1380  C     0.02050   0.64157   0.03973   0.00000  Uiso   1.00
C1381  C     0.01316   0.63297   0.00766   0.00000  Uiso   1.00
C1382  C     0.03184   0.63727   0.98998   0.00000  Uiso   1.00
C1383  C     0.05362   0.64815   0.00209   0.00000  Uiso   1.00
C1384  C     0.08892   0.65557   0.10732   0.00000  Uiso   1.00
C1385  C     0.08929   0.65569   0.14363   0.00000  Uiso   1.00
C1386  C     0.08636   0.66944   0.16444   0.00000  Uiso   1.00
C1387  C     0.08316   0.68317   0.14381   0.00000  Uiso   1.00
C1388  C     0.08277   0.68303   0.10752   0.00000  Uiso   1.00
C1389  C     0.08560   0.66921   0.08670   0.00000  Uiso   1.00
C1390  C     0.08631   0.66935   0.20461   0.00000  Uiso   1.00
C1391  C     0.12211   0.74096   0.24395   0.00000  Uiso   1.00
C1392  C     0.10386   0.72327   0.25777   0.00000  Uiso   1.00
C1393  C     0.09290   0.70151   0.24565   0.00000  Uiso   1.00
C1394  C     0.09813   0.69351   0.21769   0.00000  Uiso   1.00
C1395  C     0.11616   0.71089   0.20372   0.00000  Uiso   1.00
C1396  C     0.12717   0.73268   0.21565   0.00000  Uiso   1.00
C1397  C     0.09857   0.65738   0.21805   0.00000  Uiso   1.00
C1398  C     0.09043   0.63531   0.21997   0.00000  Uiso   1.00
C1399  C     0.10145   0.62432   0.23155   0.00000  Uiso   1.00
C1400  C     0.12266   0.63354   0.24350   0.00000  Uiso   1.00
C1401  C     0.13066   0.65581   0.24154   0.00000  Uiso   1.00
C1402  C     0.11957   0.66670   0.22982   0.00000  Uiso   1.00
C1403  C     0.05512   0.64741   0.24913   0.00000  Uiso   1.00
C1404  C     0.03338   0.63640   0.26143   0.00000  Uiso   1.00
C1405  C     0.01474   0.63305   0.24455   0.00000  Uiso   1.00
C1406  C     0.02206   0.64279   0.21306   0.00000  Uiso   1.00
C1407  C     0.04384   0.65376   0.20090   0.00000  Uiso   1.00
C1408  C     0.06216   0.65699   0.21789   0.00000  Uiso   1.00
H873   H     0.12640   0.68381   0.01972   0.00000  Uiso   1.00
H874   H     0.07230   0.62547   0.03935   0.00000  Uiso   1.00
H875   H     0.09084   0.60655   0.01885   0.00000  Uiso   1.00
H876   H     0.14510   0.66517   0.99900   0.00000  Uiso   1.00
H877   H     0.04534   0.65827   0.07736   0.00000  Uiso   1.00
H878   H     0.00801   0.63961   0.05702   0.00000  Uiso   1.00
H879   H     0.02918   0.63163   0.96433   0.00000  Uiso   1.00
H880   H     0.06643   0.65024   0.98515   0.00000  Uiso   1.00
H881   H     0.09146   0.64374   0.09427   0.00000  Uiso   1.00
H882   H     0.09205   0.64393   0.15654   0.00000  Uiso   1.00
H883   H     0.08065   0.69500   0.15695   0.00000  Uiso   1.00
H884   H     0.08003   0.69478   0.09448   0.00000  Uiso   1.00
H885   H     0.09763   0.72678   0.28013   0.00000  Uiso   1.00
H886   H     0.07892   0.68960   0.25939   0.00000  Uiso   1.00
H887   H     0.12219   0.70700   0.18133   0.00000  Uiso   1.00
H888   H     0.14105   0.74431   0.20165   0.00000  Uiso   1.00
H889   H     0.07387   0.62577   0.21151   0.00000  Uiso   1.00
H890   H     0.09268   0.60693   0.23130   0.00000  Uiso   1.00
H891   H     0.14710   0.66560   0.24994   0.00000  Uiso   1.00
H892   H     0.12811   0.68418   0.22984   0.00000  Uiso   1.00
H893   H     0.06790   0.64868   0.26542   0.00000  Uiso   1.00
H894   H     0.03071   0.62982   0.28655   0.00000  Uiso   1.00
H895   H     0.00962   0.64173   0.19643   0.00000  Uiso   1.00
H896   H     0.04681   0.66045   0.17570   0.00000  Uiso   1.00
C1409  C     0.13387   0.76409   0.25689   0.00000  Uiso   1.00
C1410  C     0.15192   0.78186   0.24280   0.00000  Uiso   1.00
C1411  C     0.16297   0.80357   0.25508   0.00000  Uiso   1.00
C1412  C     0.15798   0.81148   0.28342   0.00000  Uiso   1.00
C1413  C     0.14006   0.79405   0.29754   0.00000  Uiso   1.00
C1414  C     0.12900   0.77229   0.28550   0.00000  Uiso   1.00
H897   H     0.15795   0.77843   0.22013   0.00000  Uiso   1.00
H898   H     0.17680   0.81554   0.24113   0.00000  Uiso   1.00
H899   H     0.13418   0.79787   0.32017   0.00000  Uiso   1.00
H900   H     0.11527   0.76060   0.29970   0.00000  Uiso   1.00
C1415  C     0.13695   0.83853   0.27073   0.00000  Uiso   1.00
C1416  C     0.15794   0.84775   0.28250   0.00000  Uiso   1.00
C1417  C     0.16635   0.86984   0.27984   0.00000  Uiso   1.00
C1418  C     0.15554   0.88093   0.26777   0.00000  Uiso   1.00
C1419  C     0.13428   0.87181   0.25610   0.00000  Uiso   1.00
C1420  C     0.12606   0.84952   0.25854   0.00000  Uiso   1.00
C1421  C     0.16988   0.83562   0.29659   0.00000  Uiso   1.00
C1422  C     0.19413   0.84779   0.28375   0.00000  Uiso   1.00
C1423  C     0.21237   0.85107   0.30104   0.00000  Uiso   1.00
C1424  C     0.23419   0.86192   0.28905   0.00000  Uiso   1.00
C1425  C     0.24164   0.87145   0.25746   0.00000  Uiso   1.00
C1426  C     0.22306   0.86797   0.24024   0.00000  Uiso   1.00
C1427  C     0.20128   0.85712   0.25239   0.00000  Uiso   1.00
C1428  C     0.16648   0.84952   0.35711   0.00000  Uiso   1.00
C1429  C     0.16612   0.84952   0.39342   0.00000  Uiso   1.00
C1430  C     0.16854   0.83550   0.41449   0.00000  Uiso   1.00
C1431  C     0.17135   0.82147   0.39411   0.00000  Uiso   1.00
C1432  C     0.17179   0.82153   0.35783   0.00000  Uiso   1.00
C1433  C     0.16932   0.83553   0.33675   0.00000  Uiso   1.00
C1434  C     0.16856   0.83559   0.45466   0.00000  Uiso   1.00
C1435  C     0.13248   0.76392   0.49416   0.00000  Uiso   1.00
C1436  C     0.15144   0.78127   0.50687   0.00000  Uiso   1.00
C1437  C     0.16248   0.80305   0.49472   0.00000  Uiso   1.00
C1438  C     0.15665   0.81141   0.46778   0.00000  Uiso   1.00
C1439  C     0.13800   0.79432   0.45475   0.00000  Uiso   1.00
C1440  C     0.12685   0.77253   0.46682   0.00000  Uiso   1.00
C1441  C     0.15637   0.84761   0.46809   0.00000  Uiso   1.00
C1442  C     0.16468   0.86968   0.47049   0.00000  Uiso   1.00
C1443  C     0.15376   0.88069   0.48226   0.00000  Uiso   1.00
C1444  C     0.13247   0.87150   0.49383   0.00000  Uiso   1.00
C1445  C     0.12431   0.84923   0.49142   0.00000  Uiso   1.00
C1446  C     0.13532   0.83831   0.47958   0.00000  Uiso   1.00
C1447  C     0.19968   0.85682   0.49952   0.00000  Uiso   1.00
C1448  C     0.22141   0.86766   0.51188   0.00000  Uiso   1.00
C1449  C     0.24010   0.87145   0.49471   0.00000  Uiso   1.00
C1450  C     0.23283   0.86237   0.46288   0.00000  Uiso   1.00
C1451  C     0.21107   0.85153   0.45068   0.00000  Uiso   1.00
C1452  C     0.19270   0.84784   0.46796   0.00000  Uiso   1.00
H901   H     0.12822   0.82105   0.27121   0.00000  Uiso   1.00
H902   H     0.18295   0.87930   0.28816   0.00000  Uiso   1.00
H903   H     0.16449   0.89832   0.26752   0.00000  Uiso   1.00
H904   H     0.10957   0.83980   0.25033   0.00000  Uiso   1.00
H905   H     0.20927   0.84454   0.32634   0.00000  Uiso   1.00
H906   H     0.24658   0.86309   0.30590   0.00000  Uiso   1.00
H907   H     0.22580   0.87434   0.21497   0.00000  Uiso   1.00
H908   H     0.18858   0.85578   0.23584   0.00000  Uiso   1.00
H909   H     0.16433   0.86155   0.34381   0.00000  Uiso   1.00
H910   H     0.16376   0.86157   0.40610   0.00000  Uiso   1.00
H911   H     0.17347   0.80944   0.40752   0.00000  Uiso   1.00
H912   H     0.17421   0.80952   0.34508   0.00000  Uiso   1.00
H913   H     0.15820   0.77746   0.52835   0.00000  Uiso   1.00
H914   H     0.17703   0.81467   0.50757   0.00000  Uiso   1.00
H915   H     0.13151   0.79850   0.43314   0.00000  Uiso   1.00
H916   H     0.11240   0.76119   0.45371   0.00000  Uiso   1.00
H917   H     0.18131   0.87919   0.46234   0.00000  Uiso   1.00
H918   H     0.16267   0.89808   0.48245   0.00000  Uiso   1.00
H919   H     0.10779   0.83946   0.49950   0.00000  Uiso   1.00
H920   H     0.12662   0.82084   0.47930   0.00000  Uiso   1.00
H921   H     0.18686   0.85514   0.51605   0.00000  Uiso   1.00
H922   H     0.22404   0.87373   0.53728   0.00000  Uiso   1.00
H923   H     0.24532   0.86385   0.44599   0.00000  Uiso   1.00
H924   H     0.20812   0.84535   0.42520   0.00000  Uiso   1.00
C1453  C     0.12059   0.99077   0.00718   0.00000  Uiso   1.00
C1454  C     0.10141   0.97348   0.99495   0.00000  Uiso   1.00
C1455  C     0.09047   0.95169   0.00707   0.00000  Uiso   1.00
C1456  C     0.09666   0.94326   0.03348   0.00000  Uiso   1.00
C1457  C     0.11547   0.96031   0.04615   0.00000  Uiso   1.00
C1458  C     0.12651   0.98212   0.03412   0.00000  Uiso   1.00
H925   H     0.09439   0.97734   0.97388   0.00000  Uiso   1.00
H926   H     0.07573   0.94011   0.99461   0.00000  Uiso   1.00
H927   H     0.12221   0.95609   0.06738   0.00000  Uiso   1.00
H928   H     0.14115   0.99341   0.04684   0.00000  Uiso   1.00
C1459  C     0.11787   0.91636   0.02020   0.00000  Uiso   1.00
C1460  C     0.09701   0.90707   0.03256   0.00000  Uiso   1.00
C1461  C     0.08878   0.88499   0.03054   0.00000  Uiso   1.00
C1462  C     0.09965   0.87397   0.01862   0.00000  Uiso   1.00
C1463  C     0.12079   0.88316   0.00639   0.00000  Uiso   1.00
C1464  C     0.12882   0.90544   0.00816   0.00000  Uiso   1.00
C1465  C     0.08495   0.91907   0.04658   0.00000  Uiso   1.00
C1466  C     0.06068   0.90675   0.03387   0.00000  Uiso   1.00
C1467  C     0.04232   0.90251   0.05171   0.00000  Uiso   1.00
C1468  C     0.02049   0.89161   0.03978   0.00000  Uiso   1.00
C1469  C     0.01314   0.88302   0.00771   0.00000  Uiso   1.00
C1470  C     0.03181   0.88731   0.99002   0.00000  Uiso   1.00
C1471  C     0.05360   0.89817   0.00213   0.00000  Uiso   1.00
C1472  C     0.08889   0.90559   0.10736   0.00000  Uiso   1.00
C1473  C     0.08927   0.90572   0.14366   0.00000  Uiso   1.00
C1474  C     0.08635   0.91948   0.16447   0.00000  Uiso   1.00
C1475  C     0.08314   0.93320   0.14384   0.00000  Uiso   1.00
C1476  C     0.08275   0.93306   0.10755   0.00000  Uiso   1.00
C1477  C     0.08558   0.91923   0.08674   0.00000  Uiso   1.00
C1478  C     0.08632   0.91939   0.20464   0.00000  Uiso   1.00
C1479  C     0.12212   0.99101   0.24392   0.00000  Uiso   1.00
C1480  C     0.10387   0.97332   0.25775   0.00000  Uiso   1.00
C1481  C     0.09291   0.95156   0.24566   0.00000  Uiso   1.00
C1482  C     0.09815   0.94355   0.21771   0.00000  Uiso   1.00
C1483  C     0.11617   0.96093   0.20372   0.00000  Uiso   1.00
C1484  C     0.12718   0.98272   0.21563   0.00000  Uiso   1.00
C1485  C     0.09858   0.90741   0.21805   0.00000  Uiso   1.00
C1486  C     0.09041   0.88533   0.22001   0.00000  Uiso   1.00
C1487  C     0.10140   0.87432   0.23160   0.00000  Uiso   1.00
C1488  C     0.12261   0.88352   0.24354   0.00000  Uiso   1.00
C1489  C     0.13066   0.90579   0.24149   0.00000  Uiso   1.00
C1490  C     0.11959   0.91671   0.22976   0.00000  Uiso   1.00
C1491  C     0.05515   0.89744   0.24918   0.00000  Uiso   1.00
C1492  C     0.03341   0.88641   0.26149   0.00000  Uiso   1.00
C1493  C     0.01476   0.88304   0.24461   0.00000  Uiso   1.00
C1494  C     0.02207   0.89278   0.21312   0.00000  Uiso   1.00
C1495  C     0.04385   0.90377   0.20095   0.00000  Uiso   1.00
C1496  C     0.06217   0.90702   0.21794   0.00000  Uiso   1.00
H929   H     0.12646   0.93384   0.02003   0.00000  Uiso   1.00
H930   H     0.07228   0.87549   0.03933   0.00000  Uiso   1.00
H931   H     0.09085   0.85658   0.01897   0.00000  Uiso   1.00
H932   H     0.14519   0.91520   0.99944   0.00000  Uiso   1.00
H933   H     0.04534   0.90830   0.07741   0.00000  Uiso   1.00
H934   H     0.00801   0.88967   0.05708   0.00000  Uiso   1.00
H935   H     0.02914   0.88167   0.96437   0.00000  Uiso   1.00
H936   H     0.06640   0.90026   0.98518   0.00000  Uiso   1.00
H937   H     0.09142   0.89376   0.09430   0.00000  Uiso   1.00
H938   H     0.09203   0.89395   0.15657   0.00000  Uiso   1.00
H939   H     0.08065   0.94503   0.15698   0.00000  Uiso   1.00
H940   H     0.08001   0.94481   0.09452   0.00000  Uiso   1.00
H941   H     0.09764   0.97684   0.28011   0.00000  Uiso   1.00
H942   H     0.07894   0.93965   0.25941   0.00000  Uiso   1.00
H943   H     0.12220   0.95702   0.18134   0.00000  Uiso   1.00
H944   H     0.14106   0.99434   0.20163   0.00000  Uiso   1.00
H945   H     0.07384   0.87582   0.21158   0.00000  Uiso   1.00
H946   H     0.09260   0.85693   0.23138   0.00000  Uiso   1.00
H947   H     0.14711   0.91556   0.24985   0.00000  Uiso   1.00
H948   H     0.12816   0.93419   0.22974   0.00000  Uiso   1.00
H949   H     0.06793   0.89872   0.26547   0.00000  Uiso   1.00
H950   H     0.03074   0.87983   0.28661   0.00000  Uiso   1.00
H951   H     0.00962   0.89171   0.19650   0.00000  Uiso   1.00
H952   H     0.04681   0.91046   0.17575   0.00000  Uiso   1.00
C1497  C     0.38556   0.76388   0.25976   0.00000  Uiso   1.00
C1498  C     0.40364   0.78095   0.24588   0.00000  Uiso   1.00
C1499  C     0.41427   0.80308   0.25714   0.00000  Uiso   1.00
C1500  C     0.40829   0.81118   0.28391   0.00000  Uiso   1.00
C1501  C     0.39009   0.79410   0.29767   0.00000  Uiso   1.00
C1502  C     0.37951   0.77198   0.28644   0.00000  Uiso   1.00
H953   H     0.41033   0.77703   0.22439   0.00000  Uiso   1.00
H954   H     0.42847   0.81485   0.24381   0.00000  Uiso   1.00
H955   H     0.38359   0.79823   0.31915   0.00000  Uiso   1.00
H956   H     0.36536   0.76030   0.29999   0.00000  Uiso   1.00
C1503  C     0.38704   0.83825   0.26985   0.00000  Uiso   1.00
C1504  C     0.40789   0.84751   0.28227   0.00000  Uiso   1.00
C1505  C     0.41617   0.86960   0.27998   0.00000  Uiso   1.00
C1506  C     0.40534   0.88065   0.26785   0.00000  Uiso   1.00
C1507  C     0.38418   0.87149   0.25570   0.00000  Uiso   1.00
C1508  C     0.37614   0.84921   0.25759   0.00000  Uiso   1.00
C1509  C     0.41994   0.83558   0.29659   0.00000  Uiso   1.00
C1510  C     0.44415   0.84781   0.28374   0.00000  Uiso   1.00
C1511  C     0.46246   0.85138   0.30114   0.00000  Uiso   1.00
C1512  C     0.48426   0.86223   0.28908   0.00000  Uiso   1.00
C1513  C     0.49164   0.87149   0.25732   0.00000  Uiso   1.00
C1514  C     0.47300   0.86775   0.24000   0.00000  Uiso   1.00
C1515  C     0.45124   0.85689   0.25220   0.00000  Uiso   1.00
C1516  C     0.41613   0.84926   0.35716   0.00000  Uiso   1.00
C1517  C     0.41572   0.84915   0.39345   0.00000  Uiso   1.00
C1518  C     0.41851   0.83532   0.41447   0.00000  Uiso   1.00
C1519  C     0.42180   0.82164   0.39398   0.00000  Uiso   1.00
C1520  C     0.42225   0.82178   0.35771   0.00000  Uiso   1.00
C1521  C     0.41939   0.83557   0.33669   0.00000  Uiso   1.00
C1522  C     0.41831   0.83514   0.45457   0.00000  Uiso   1.00
C1523  C     0.38155   0.76327   0.49110   0.00000  Uiso   1.00
C1524  C     0.39930   0.78006   0.50612   0.00000  Uiso   1.00
C1525  C     0.41076   0.80223   0.49492   0.00000  Uiso   1.00
C1526  C     0.40601   0.81067   0.46710   0.00000  Uiso   1.00
C1527  C     0.38818   0.79386   0.45214   0.00000  Uiso   1.00
C1528  C     0.37678   0.77169   0.46331   0.00000  Uiso   1.00
C1529  C     0.40621   0.84717   0.46807   0.00000  Uiso   1.00
C1530  C     0.41463   0.86925   0.47091   0.00000  Uiso   1.00
C1531  C     0.40376   0.88029   0.48271   0.00000  Uiso   1.00
C1532  C     0.38239   0.87115   0.49388   0.00000  Uiso   1.00
C1533  C     0.37409   0.84887   0.49100   0.00000  Uiso   1.00
C1534  C     0.38505   0.83792   0.47911   0.00000  Uiso   1.00
C1535  C     0.44928   0.85593   0.49983   0.00000  Uiso   1.00
C1536  C     0.47099   0.86677   0.51226   0.00000  Uiso   1.00
C1537  C     0.48974   0.87076   0.49505   0.00000  Uiso   1.00
C1538  C     0.48251   0.86171   0.46319   0.00000  Uiso   1.00
C1539  C     0.46076   0.85087   0.45092   0.00000  Uiso   1.00
C1540  C     0.44235   0.84712   0.46815   0.00000  Uiso   1.00
H957   H     0.37844   0.82077   0.26989   0.00000  Uiso   1.00
H958   H     0.43266   0.87908   0.28875   0.00000  Uiso   1.00
H959   H     0.41418   0.89804   0.26803   0.00000  Uiso   1.00
H960   H     0.35976   0.83947   0.24889   0.00000  Uiso   1.00
H961   H     0.45944   0.84509   0.32658   0.00000  Uiso   1.00
H962   H     0.49671   0.86363   0.30603   0.00000  Uiso   1.00
H963   H     0.47568   0.87388   0.21459   0.00000  Uiso   1.00
H964   H     0.43848   0.85529   0.23557   0.00000  Uiso   1.00
H965   H     0.41362   0.86108   0.34393   0.00000  Uiso   1.00
H966   H     0.41296   0.86091   0.40623   0.00000  Uiso   1.00
H967   H     0.42424   0.80978   0.40730   0.00000  Uiso   1.00
H968   H     0.42499   0.81001   0.34486   0.00000  Uiso   1.00
H969   H     0.40499   0.77584   0.52857   0.00000  Uiso   1.00
H970   H     0.42453   0.81375   0.50929   0.00000  Uiso   1.00
H971   H     0.38262   0.79829   0.42977   0.00000  Uiso   1.00
H972   H     0.36302   0.76028   0.44875   0.00000  Uiso   1.00
H973   H     0.43134   0.87872   0.46310   0.00000  Uiso   1.00
H974   H     0.41278   0.89768   0.48328   0.00000  Uiso   1.00
H975   H     0.35749   0.83914   0.49869   0.00000  Uiso   1.00
H976   H     0.37626   0.82046   0.47836   0.00000  Uiso   1.00
H977   H     0.43644   0.85419   0.51635   0.00000  Uiso   1.00
H978   H     0.47358   0.87274   0.53771   0.00000  Uiso   1.00
H979   H     0.49503   0.86329   0.44628   0.00000  Uiso   1.00
H980   H     0.45789   0.84482   0.42537   0.00000  Uiso   1.00
C1541  C     0.37069   0.99066   0.00709   0.00000  Uiso   1.00
C1542  C     0.35151   0.97335   0.99487   0.00000  Uiso   1.00
C1543  C     0.34060   0.95156   0.00698   0.00000  Uiso   1.00
C1544  C     0.34681   0.94314   0.03338   0.00000  Uiso   1.00
C1545  C     0.36563   0.96020   0.04600   0.00000  Uiso   1.00
C1546  C     0.37665   0.98200   0.03397   0.00000  Uiso   1.00
H981   H     0.34446   0.97721   0.97383   0.00000  Uiso   1.00
H982   H     0.32584   0.93998   0.99455   0.00000  Uiso   1.00
H983   H     0.37240   0.95598   0.06720   0.00000  Uiso   1.00
H984   H     0.39130   0.99330   0.04667   0.00000  Uiso   1.00
C1547  C     0.36796   0.91614   0.02021   0.00000  Uiso   1.00
C1548  C     0.34710   0.90691   0.03254   0.00000  Uiso   1.00
C1549  C     0.33881   0.88482   0.03057   0.00000  Uiso   1.00
C1550  C     0.34964   0.87373   0.01868   0.00000  Uiso   1.00
C1551  C     0.37077   0.88286   0.00644   0.00000  Uiso   1.00
C1552  C     0.37886   0.90515   0.00822   0.00000  Uiso   1.00
C1553  C     0.33508   0.91896   0.04651   0.00000  Uiso   1.00
C1554  C     0.31081   0.90664   0.03381   0.00000  Uiso   1.00
C1555  C     0.29246   0.90242   0.05164   0.00000  Uiso   1.00
C1556  C     0.27063   0.89154   0.03973   0.00000  Uiso   1.00
C1557  C     0.26327   0.88295   0.00766   0.00000  Uiso   1.00
C1558  C     0.28194   0.88721   0.98997   0.00000  Uiso   1.00
C1559  C     0.30372   0.89806   0.00207   0.00000  Uiso   1.00
C1560  C     0.33900   0.90550   0.10731   0.00000  Uiso   1.00
C1561  C     0.33936   0.90563   0.14362   0.00000  Uiso   1.00
C1562  C     0.33643   0.91940   0.16441   0.00000  Uiso   1.00
C1563  C     0.33325   0.93313   0.14375   0.00000  Uiso   1.00
C1564  C     0.33289   0.93299   0.10746   0.00000  Uiso   1.00
C1565  C     0.33571   0.91914   0.08667   0.00000  Uiso   1.00
C1566  C     0.33638   0.91930   0.20457   0.00000  Uiso   1.00
C1567  C     0.37213   0.99091   0.24390   0.00000  Uiso   1.00
C1568  C     0.35389   0.97322   0.25772   0.00000  Uiso   1.00
C1569  C     0.34296   0.95145   0.24562   0.00000  Uiso   1.00
C1570  C     0.34822   0.94345   0.21769   0.00000  Uiso   1.00
C1571  C     0.36626   0.96084   0.20374   0.00000  Uiso   1.00
C1572  C     0.37723   0.98264   0.21565   0.00000  Uiso   1.00
C1573  C     0.34858   0.90725   0.21794   0.00000  Uiso   1.00
C1574  C     0.34037   0.88516   0.21976   0.00000  Uiso   1.00
C1575  C     0.35133   0.87408   0.23123   0.00000  Uiso   1.00
C1576  C     0.37252   0.88322   0.24321   0.00000  Uiso   1.00
C1577  C     0.38060   0.90550   0.24132   0.00000  Uiso   1.00
C1578  C     0.36957   0.91649   0.22970   0.00000  Uiso   1.00
C1579  C     0.30519   0.89738   0.24909   0.00000  Uiso   1.00
C1580  C     0.28345   0.88639   0.26141   0.00000  Uiso   1.00
C1581  C     0.26481   0.88307   0.24454   0.00000  Uiso   1.00
C1582  C     0.27214   0.89281   0.21306   0.00000  Uiso   1.00
C1583  C     0.29392   0.90377   0.20089   0.00000  Uiso   1.00
C1584  C     0.31223   0.90696   0.21786   0.00000  Uiso   1.00
H985   H     0.37660   0.93361   0.02003   0.00000  Uiso   1.00
H986   H     0.32231   0.87536   0.03934   0.00000  Uiso   1.00
H987   H     0.34079   0.85634   0.01904   0.00000  Uiso   1.00
H988   H     0.39524   0.91487   0.99950   0.00000  Uiso   1.00
H989   H     0.29549   0.90822   0.07734   0.00000  Uiso   1.00
H990   H     0.25815   0.88960   0.05702   0.00000  Uiso   1.00
H991   H     0.27926   0.88157   0.96432   0.00000  Uiso   1.00
H992   H     0.31652   0.90013   0.98512   0.00000  Uiso   1.00
H993   H     0.34153   0.89366   0.09428   0.00000  Uiso   1.00
H994   H     0.34211   0.89387   0.15654   0.00000  Uiso   1.00
H995   H     0.33076   0.94497   0.15687   0.00000  Uiso   1.00
H996   H     0.33016   0.94474   0.09441   0.00000  Uiso   1.00
H997   H     0.34763   0.97672   0.28005   0.00000  Uiso   1.00
H998   H     0.32897   0.93953   0.25934   0.00000  Uiso   1.00
H999   H     0.37231   0.95695   0.18137   0.00000  Uiso   1.00
H1000  H     0.39112   0.99426   0.20167   0.00000  Uiso   1.00
H1001  H     0.32380   0.87569   0.21129   0.00000  Uiso   1.00
H1002  H     0.34250   0.85669   0.23090   0.00000  Uiso   1.00
H1003  H     0.39704   0.91523   0.24972   0.00000  Uiso   1.00
H1004  H     0.37817   0.93396   0.22978   0.00000  Uiso   1.00
H1005  H     0.31796   0.89862   0.26537   0.00000  Uiso   1.00
H1006  H     0.28078   0.87979   0.28652   0.00000  Uiso   1.00
H1007  H     0.25970   0.89178   0.19645   0.00000  Uiso   1.00
H1008  H     0.29689   0.91047   0.17569   0.00000  Uiso   1.00
C1585  C     0.13428   0.51438   0.75659   0.00000  Uiso   1.00
C1586  C     0.15222   0.53222   0.74242   0.00000  Uiso   1.00
C1587  C     0.16322   0.55393   0.75473   0.00000  Uiso   1.00
C1588  C     0.15830   0.56175   0.78325   0.00000  Uiso   1.00
C1589  C     0.14046   0.54425   0.79742   0.00000  Uiso   1.00
C1590  C     0.12946   0.52250   0.78534   0.00000  Uiso   1.00
H1009  H     0.15819   0.52886   0.71962   0.00000  Uiso   1.00
H1010  H     0.17696   0.56598   0.74073   0.00000  Uiso   1.00
H1011  H     0.13461   0.54800   0.82014   0.00000  Uiso   1.00
H1012  H     0.11581   0.51076   0.79962   0.00000  Uiso   1.00
C1591  C     0.13732   0.58866   0.76993   0.00000  Uiso   1.00
C1592  C     0.15816   0.59792   0.78240   0.00000  Uiso   1.00
C1593  C     0.16637   0.62001   0.78037   0.00000  Uiso   1.00
C1594  C     0.15551   0.63104   0.76831   0.00000  Uiso   1.00
C1595  C     0.13438   0.62188   0.75601   0.00000  Uiso   1.00
C1596  C     0.12638   0.59960   0.75775   0.00000  Uiso   1.00
C1597  C     0.17007   0.58581   0.79657   0.00000  Uiso   1.00
C1598  C     0.19457   0.59819   0.78422   0.00000  Uiso   1.00
C1599  C     0.21231   0.60051   0.80166   0.00000  Uiso   1.00
C1600  C     0.23445   0.61176   0.79034   0.00000  Uiso   1.00
C1601  C     0.24194   0.62220   0.76003   0.00000  Uiso   1.00
C1602  C     0.22421   0.61978   0.74251   0.00000  Uiso   1.00
C1603  C     0.20206   0.60848   0.75375   0.00000  Uiso   1.00
C1604  C     0.16659   0.59964   0.85707   0.00000  Uiso   1.00
C1605  C     0.16625   0.59964   0.89336   0.00000  Uiso   1.00
C1606  C     0.16862   0.58558   0.91444   0.00000  Uiso   1.00
C1607  C     0.17131   0.57148   0.89402   0.00000  Uiso   1.00
C1608  C     0.17168   0.57151   0.85776   0.00000  Uiso   1.00
C1609  C     0.16935   0.58561   0.83666   0.00000  Uiso   1.00
C1610  C     0.16864   0.58569   0.95455   0.00000  Uiso   1.00
C1611  C     0.13266   0.51407   0.99415   0.00000  Uiso   1.00
C1612  C     0.15151   0.53148   0.00701   0.00000  Uiso   1.00
C1613  C     0.16255   0.55325   0.99485   0.00000  Uiso   1.00
C1614  C     0.15681   0.56156   0.96771   0.00000  Uiso   1.00
C1615  C     0.13825   0.54441   0.95455   0.00000  Uiso   1.00
C1616  C     0.12713   0.52263   0.96662   0.00000  Uiso   1.00
C1617  C     0.15643   0.59765   0.96791   0.00000  Uiso   1.00
C1618  C     0.16458   0.61973   0.96981   0.00000  Uiso   1.00
C1619  C     0.15361   0.63071   0.98150   0.00000  Uiso   1.00
C1620  C     0.13243   0.62149   0.99356   0.00000  Uiso   1.00
C1621  C     0.12442   0.59922   0.99165   0.00000  Uiso   1.00
C1622  C     0.13546   0.58833   0.97987   0.00000  Uiso   1.00
C1623  C     0.19966   0.60751   0.99915   0.00000  Uiso   1.00
C1624  C     0.22157   0.61874   0.01149   0.00000  Uiso   1.00
C1625  C     0.23976   0.62210   0.99443   0.00000  Uiso   1.00
C1626  C     0.23303   0.61267   0.96333   0.00000  Uiso   1.00
C1627  C     0.21113   0.60145   0.95093   0.00000  Uiso   1.00
C1628  C     0.19291   0.59814   0.96795   0.00000  Uiso   1.00
H1013  H     0.12877   0.57118   0.76985   0.00000  Uiso   1.00
H1014  H     0.18283   0.62952   0.78925   0.00000  Uiso   1.00
H1015  H     0.16429   0.64844   0.76865   0.00000  Uiso   1.00
H1016  H     0.11003   0.58984   0.74896   0.00000  Uiso   1.00
H1017  H     0.20879   0.59308   0.82628   0.00000  Uiso   1.00
H1018  H     0.24669   0.61226   0.80702   0.00000  Uiso   1.00
H1019  H     0.22760   0.62722   0.71787   0.00000  Uiso   1.00
H1020  H     0.18968   0.60785   0.73728   0.00000  Uiso   1.00
H1021  H     0.16453   0.61174   0.84380   0.00000  Uiso   1.00
H1022  H     0.16397   0.61174   0.90604   0.00000  Uiso   1.00
H1023  H     0.17336   0.55941   0.90741   0.00000  Uiso   1.00
H1024  H     0.17401   0.55945   0.84500   0.00000  Uiso   1.00
H1025  H     0.15818   0.52772   0.02866   0.00000  Uiso   1.00
H1026  H     0.17700   0.56494   0.00783   0.00000  Uiso   1.00
H1027  H     0.13184   0.54855   0.93280   0.00000  Uiso   1.00
H1028  H     0.11276   0.51124   0.95337   0.00000  Uiso   1.00
H1029  H     0.18113   0.62927   0.96128   0.00000  Uiso   1.00
H1030  H     0.16240   0.64811   0.98124   0.00000  Uiso   1.00
H1031  H     0.10800   0.58943   0.00015   0.00000  Uiso   1.00
H1032  H     0.12690   0.57086   0.98001   0.00000  Uiso   1.00
H1033  H     0.18683   0.60606   0.01533   0.00000  Uiso   1.00
H1034  H     0.22434   0.62532   0.03665   0.00000  Uiso   1.00
H1035  H     0.24571   0.61400   0.94690   0.00000  Uiso   1.00
H1036  H     0.20820   0.59484   0.92581   0.00000  Uiso   1.00
C1629  C     0.12065   0.74076   0.50717   0.00000  Uiso   1.00
C1630  C     0.10147   0.72348   0.49494   0.00000  Uiso   1.00
C1631  C     0.09051   0.70168   0.50705   0.00000  Uiso   1.00
C1632  C     0.09669   0.69325   0.53346   0.00000  Uiso   1.00
C1633  C     0.11551   0.71029   0.54613   0.00000  Uiso   1.00
C1634  C     0.12657   0.73209   0.53410   0.00000  Uiso   1.00
H1037  H     0.09445   0.72735   0.47387   0.00000  Uiso   1.00
H1038  H     0.07577   0.69012   0.49458   0.00000  Uiso   1.00
H1039  H     0.12225   0.70605   0.56735   0.00000  Uiso   1.00
H1040  H     0.14121   0.74338   0.54683   0.00000  Uiso   1.00
C1635  C     0.11782   0.66634   0.51995   0.00000  Uiso   1.00
C1636  C     0.09701   0.65705   0.53246   0.00000  Uiso   1.00
C1637  C     0.08878   0.63497   0.53047   0.00000  Uiso   1.00
C1638  C     0.09963   0.62394   0.51847   0.00000  Uiso   1.00
C1639  C     0.12074   0.63313   0.50613   0.00000  Uiso   1.00
C1640  C     0.12875   0.65541   0.50782   0.00000  Uiso   1.00
C1641  C     0.08496   0.66905   0.54655   0.00000  Uiso   1.00
C1642  C     0.06069   0.65673   0.53383   0.00000  Uiso   1.00
C1643  C     0.04233   0.65248   0.55166   0.00000  Uiso   1.00
C1644  C     0.02050   0.64157   0.53973   0.00000  Uiso   1.00
C1645  C     0.01316   0.63297   0.50766   0.00000  Uiso   1.00
C1646  C     0.03184   0.63726   0.48998   0.00000  Uiso   1.00
C1647  C     0.05362   0.64815   0.50209   0.00000  Uiso   1.00
C1648  C     0.08892   0.65557   0.60733   0.00000  Uiso   1.00
C1649  C     0.08929   0.65569   0.64364   0.00000  Uiso   1.00
C1650  C     0.08636   0.66944   0.66444   0.00000  Uiso   1.00
C1651  C     0.08316   0.68317   0.64380   0.00000  Uiso   1.00
C1652  C     0.08277   0.68303   0.60752   0.00000  Uiso   1.00
C1653  C     0.08560   0.66920   0.58670   0.00000  Uiso   1.00
C1654  C     0.08631   0.66935   0.70461   0.00000  Uiso   1.00
C1655  C     0.12211   0.74096   0.74395   0.00000  Uiso   1.00
C1656  C     0.10386   0.72327   0.75777   0.00000  Uiso   1.00
C1657  C     0.09290   0.70151   0.74565   0.00000  Uiso   1.00
C1658  C     0.09813   0.69351   0.71769   0.00000  Uiso   1.00
C1659  C     0.11616   0.71089   0.70372   0.00000  Uiso   1.00
C1660  C     0.12717   0.73268   0.71565   0.00000  Uiso   1.00
C1661  C     0.09857   0.65738   0.71805   0.00000  Uiso   1.00
C1662  C     0.09043   0.63531   0.71997   0.00000  Uiso   1.00
C1663  C     0.10145   0.62432   0.73155   0.00000  Uiso   1.00
C1664  C     0.12266   0.63354   0.74350   0.00000  Uiso   1.00
C1665  C     0.13066   0.65581   0.74154   0.00000  Uiso   1.00
C1666  C     0.11957   0.66670   0.72982   0.00000  Uiso   1.00
C1667  C     0.05512   0.64741   0.74913   0.00000  Uiso   1.00
C1668  C     0.03338   0.63640   0.76143   0.00000  Uiso   1.00
C1669  C     0.01474   0.63305   0.74455   0.00000  Uiso   1.00
C1670  C     0.02206   0.64279   0.71306   0.00000  Uiso   1.00
C1671  C     0.04384   0.65376   0.70090   0.00000  Uiso   1.00
C1672  C     0.06216   0.65699   0.71789   0.00000  Uiso   1.00
H1041  H     0.12640   0.68381   0.51972   0.00000  Uiso   1.00
H1042  H     0.07230   0.62547   0.53935   0.00000  Uiso   1.00
H1043  H     0.09084   0.60655   0.51885   0.00000  Uiso   1.00
H1044  H     0.14510   0.66517   0.49900   0.00000  Uiso   1.00
H1045  H     0.04535   0.65827   0.57736   0.00000  Uiso   1.00
H1046  H     0.00801   0.63961   0.55702   0.00000  Uiso   1.00
H1047  H     0.02918   0.63163   0.46433   0.00000  Uiso   1.00
H1048  H     0.06643   0.65024   0.48515   0.00000  Uiso   1.00
H1049  H     0.09146   0.64374   0.59427   0.00000  Uiso   1.00
H1050  H     0.09205   0.64393   0.65654   0.00000  Uiso   1.00
H1051  H     0.08066   0.69500   0.65695   0.00000  Uiso   1.00
H1052  H     0.08003   0.69478   0.59448   0.00000  Uiso   1.00
H1053  H     0.09763   0.72678   0.78013   0.00000  Uiso   1.00
H1054  H     0.07892   0.68960   0.75939   0.00000  Uiso   1.00
H1055  H     0.12219   0.70700   0.68132   0.00000  Uiso   1.00
H1056  H     0.14105   0.74431   0.70165   0.00000  Uiso   1.00
H1057  H     0.07387   0.62577   0.71151   0.00000  Uiso   1.00
H1058  H     0.09268   0.60693   0.73131   0.00000  Uiso   1.00
H1059  H     0.14710   0.66560   0.74994   0.00000  Uiso   1.00
H1060  H     0.12811   0.68418   0.72984   0.00000  Uiso   1.00
H1061  H     0.06790   0.64868   0.76542   0.00000  Uiso   1.00
H1062  H     0.03071   0.62982   0.78655   0.00000  Uiso   1.00
H1063  H     0.00962   0.64173   0.69643   0.00000  Uiso   1.00
H1064  H     0.04681   0.66045   0.67570   0.00000  Uiso   1.00
C1673  C     0.13387   0.76409   0.75689   0.00000  Uiso   1.00
C1674  C     0.15192   0.78186   0.74281   0.00000  Uiso   1.00
C1675  C     0.16297   0.80357   0.75508   0.00000  Uiso   1.00
C1676  C     0.15798   0.81148   0.78342   0.00000  Uiso   1.00
C1677  C     0.14006   0.79405   0.79754   0.00000  Uiso   1.00
C1678  C     0.12901   0.77229   0.78550   0.00000  Uiso   1.00
H1065  H     0.15795   0.77843   0.72013   0.00000  Uiso   1.00
H1066  H     0.17680   0.81554   0.74113   0.00000  Uiso   1.00
H1067  H     0.13418   0.79787   0.82017   0.00000  Uiso   1.00
H1068  H     0.11527   0.76060   0.79970   0.00000  Uiso   1.00
C1679  C     0.13695   0.83853   0.77073   0.00000  Uiso   1.00
C1680  C     0.15794   0.84775   0.78250   0.00000  Uiso   1.00
C1681  C     0.16635   0.86984   0.77984   0.00000  Uiso   1.00
C1682  C     0.15554   0.88093   0.76777   0.00000  Uiso   1.00
C1683  C     0.13428   0.87181   0.75610   0.00000  Uiso   1.00
C1684  C     0.12606   0.84952   0.75854   0.00000  Uiso   1.00
C1685  C     0.16988   0.83562   0.79659   0.00000  Uiso   1.00
C1686  C     0.19413   0.84779   0.78375   0.00000  Uiso   1.00
C1687  C     0.21237   0.85107   0.80103   0.00000  Uiso   1.00
C1688  C     0.23419   0.86192   0.78905   0.00000  Uiso   1.00
C1689  C     0.24164   0.87144   0.75746   0.00000  Uiso   1.00
C1690  C     0.22306   0.86797   0.74024   0.00000  Uiso   1.00
C1691  C     0.20128   0.85712   0.75239   0.00000  Uiso   1.00
C1692  C     0.16648   0.84952   0.85711   0.00000  Uiso   1.00
C1693  C     0.16612   0.84951   0.89342   0.00000  Uiso   1.00
C1694  C     0.16854   0.83550   0.91448   0.00000  Uiso   1.00
C1695  C     0.17135   0.82147   0.89411   0.00000  Uiso   1.00
C1696  C     0.17179   0.82153   0.85783   0.00000  Uiso   1.00
C1697  C     0.16932   0.83553   0.83675   0.00000  Uiso   1.00
C1698  C     0.16855   0.83559   0.95466   0.00000  Uiso   1.00
C1699  C     0.13248   0.76391   0.99416   0.00000  Uiso   1.00
C1700  C     0.15144   0.78126   0.00687   0.00000  Uiso   1.00
C1701  C     0.16248   0.80305   0.99472   0.00000  Uiso   1.00
C1702  C     0.15665   0.81141   0.96779   0.00000  Uiso   1.00
C1703  C     0.13800   0.79432   0.95475   0.00000  Uiso   1.00
C1704  C     0.12685   0.77253   0.96682   0.00000  Uiso   1.00
C1705  C     0.15637   0.84761   0.96809   0.00000  Uiso   1.00
C1706  C     0.16468   0.86968   0.97049   0.00000  Uiso   1.00
C1707  C     0.15376   0.88069   0.98226   0.00000  Uiso   1.00
C1708  C     0.13247   0.87150   0.99383   0.00000  Uiso   1.00
C1709  C     0.12431   0.84923   0.99142   0.00000  Uiso   1.00
C1710  C     0.13532   0.83831   0.97958   0.00000  Uiso   1.00
C1711  C     0.19968   0.85682   0.99952   0.00000  Uiso   1.00
C1712  C     0.22141   0.86766   0.01188   0.00000  Uiso   1.00
C1713  C     0.24010   0.87145   0.99471   0.00000  Uiso   1.00
C1714  C     0.23283   0.86237   0.96288   0.00000  Uiso   1.00
C1715  C     0.21106   0.85153   0.95068   0.00000  Uiso   1.00
C1716  C     0.19270   0.84784   0.96796   0.00000  Uiso   1.00
H1069  H     0.12822   0.82105   0.77121   0.00000  Uiso   1.00
H1070  H     0.18295   0.87930   0.78816   0.00000  Uiso   1.00
H1071  H     0.16449   0.89832   0.76752   0.00000  Uiso   1.00
H1072  H     0.10957   0.83980   0.75033   0.00000  Uiso   1.00
H1073  H     0.20927   0.84454   0.82634   0.00000  Uiso   1.00
H1074  H     0.24658   0.86309   0.80590   0.00000  Uiso   1.00
H1075  H     0.22580   0.87434   0.71497   0.00000  Uiso   1.00
H1076  H     0.18858   0.85578   0.73584   0.00000  Uiso   1.00
H1077  H     0.16433   0.86155   0.84381   0.00000  Uiso   1.00
H1078  H     0.16376   0.86157   0.90610   0.00000  Uiso   1.00
H1079  H     0.17347   0.80944   0.90752   0.00000  Uiso   1.00
H1080  H     0.17421   0.80952   0.84508   0.00000  Uiso   1.00
H1081  H     0.15820   0.77746   0.02835   0.00000  Uiso   1.00
H1082  H     0.17703   0.81467   0.00757   0.00000  Uiso   1.00
H1083  H     0.13151   0.79850   0.93314   0.00000  Uiso   1.00
H1084  H     0.11240   0.76119   0.95372   0.00000  Uiso   1.00
H1085  H     0.18131   0.87919   0.96234   0.00000  Uiso   1.00
H1086  H     0.16267   0.89808   0.98245   0.00000  Uiso   1.00
H1087  H     0.10779   0.83946   0.99950   0.00000  Uiso   1.00
H1088  H     0.12662   0.82084   0.97930   0.00000  Uiso   1.00
H1089  H     0.18686   0.85514   0.01605   0.00000  Uiso   1.00
H1090  H     0.22404   0.87373   0.03728   0.00000  Uiso   1.00
H1091  H     0.24532   0.86385   0.94600   0.00000  Uiso   1.00
H1092  H     0.20812   0.84535   0.92520   0.00000  Uiso   1.00
C1717  C     0.12059   0.99077   0.50718   0.00000  Uiso   1.00
C1718  C     0.10141   0.97348   0.49495   0.00000  Uiso   1.00
C1719  C     0.09047   0.95169   0.50707   0.00000  Uiso   1.00
C1720  C     0.09666   0.94326   0.53348   0.00000  Uiso   1.00
C1721  C     0.11547   0.96031   0.54615   0.00000  Uiso   1.00
C1722  C     0.12651   0.98212   0.53412   0.00000  Uiso   1.00
H1093  H     0.09439   0.97734   0.47388   0.00000  Uiso   1.00
H1094  H     0.07573   0.94011   0.49461   0.00000  Uiso   1.00
H1095  H     0.12221   0.95609   0.56738   0.00000  Uiso   1.00
H1096  H     0.14115   0.99341   0.54684   0.00000  Uiso   1.00
C1723  C     0.11787   0.91636   0.52020   0.00000  Uiso   1.00
C1724  C     0.09701   0.90707   0.53256   0.00000  Uiso   1.00
C1725  C     0.08878   0.88499   0.53054   0.00000  Uiso   1.00
C1726  C     0.09966   0.87397   0.51862   0.00000  Uiso   1.00
C1727  C     0.12079   0.88316   0.50639   0.00000  Uiso   1.00
C1728  C     0.12882   0.90544   0.50816   0.00000  Uiso   1.00
C1729  C     0.08495   0.91907   0.54658   0.00000  Uiso   1.00
C1730  C     0.06068   0.90675   0.53387   0.00000  Uiso   1.00
C1731  C     0.04232   0.90251   0.55170   0.00000  Uiso   1.00
C1732  C     0.02049   0.89161   0.53978   0.00000  Uiso   1.00
C1733  C     0.01314   0.88302   0.50771   0.00000  Uiso   1.00
C1734  C     0.03181   0.88731   0.49002   0.00000  Uiso   1.00
C1735  C     0.05360   0.89817   0.50212   0.00000  Uiso   1.00
C1736  C     0.08889   0.90559   0.60736   0.00000  Uiso   1.00
C1737  C     0.08927   0.90572   0.64366   0.00000  Uiso   1.00
C1738  C     0.08635   0.91947   0.66447   0.00000  Uiso   1.00
C1739  C     0.08315   0.93320   0.64384   0.00000  Uiso   1.00
C1740  C     0.08276   0.93306   0.60755   0.00000  Uiso   1.00
C1741  C     0.08558   0.91923   0.58673   0.00000  Uiso   1.00
C1742  C     0.08632   0.91939   0.70464   0.00000  Uiso   1.00
C1743  C     0.12212   0.99101   0.74392   0.00000  Uiso   1.00
C1744  C     0.10387   0.97333   0.75775   0.00000  Uiso   1.00
C1745  C     0.09291   0.95156   0.74566   0.00000  Uiso   1.00
C1746  C     0.09815   0.94355   0.71771   0.00000  Uiso   1.00
C1747  C     0.11617   0.96093   0.70372   0.00000  Uiso   1.00
C1748  C     0.12718   0.98272   0.71563   0.00000  Uiso   1.00
C1749  C     0.09858   0.90741   0.71805   0.00000  Uiso   1.00
C1750  C     0.09041   0.88533   0.72001   0.00000  Uiso   1.00
C1751  C     0.10140   0.87432   0.73160   0.00000  Uiso   1.00
C1752  C     0.12261   0.88352   0.74354   0.00000  Uiso   1.00
C1753  C     0.13066   0.90579   0.74149   0.00000  Uiso   1.00
C1754  C     0.11959   0.91671   0.72976   0.00000  Uiso   1.00
C1755  C     0.05515   0.89744   0.74918   0.00000  Uiso   1.00
C1756  C     0.03341   0.88641   0.76149   0.00000  Uiso   1.00
C1757  C     0.01476   0.88304   0.74461   0.00000  Uiso   1.00
C1758  C     0.02207   0.89278   0.71312   0.00000  Uiso   1.00
C1759  C     0.04385   0.90377   0.70095   0.00000  Uiso   1.00
C1760  C     0.06217   0.90702   0.71794   0.00000  Uiso   1.00
H1097  H     0.12646   0.93384   0.52003   0.00000  Uiso   1.00
H1098  H     0.07228   0.87549   0.53933   0.00000  Uiso   1.00
H1099  H     0.09085   0.85658   0.51897   0.00000  Uiso   1.00
H1100  H     0.14519   0.91520   0.49944   0.00000  Uiso   1.00
H1101  H     0.04535   0.90830   0.57740   0.00000  Uiso   1.00
H1102  H     0.00801   0.88966   0.55708   0.00000  Uiso   1.00
H1103  H     0.02914   0.88167   0.46437   0.00000  Uiso   1.00
H1104  H     0.06640   0.90026   0.48518   0.00000  Uiso   1.00
H1105  H     0.09142   0.89376   0.59430   0.00000  Uiso   1.00
H1106  H     0.09203   0.89395   0.65657   0.00000  Uiso   1.00
H1107  H     0.08065   0.94503   0.65698   0.00000  Uiso   1.00
H1108  H     0.08001   0.94481   0.59452   0.00000  Uiso   1.00
H1109  H     0.09764   0.97684   0.78011   0.00000  Uiso   1.00
H1110  H     0.07894   0.93965   0.75941   0.00000  Uiso   1.00
H1111  H     0.12220   0.95702   0.68134   0.00000  Uiso   1.00
H1112  H     0.14106   0.99434   0.70163   0.00000  Uiso   1.00
H1113  H     0.07384   0.87582   0.71158   0.00000  Uiso   1.00
H1114  H     0.09260   0.85693   0.73138   0.00000  Uiso   1.00
H1115  H     0.14711   0.91556   0.74985   0.00000  Uiso   1.00
H1116  H     0.12816   0.93419   0.72974   0.00000  Uiso   1.00
H1117  H     0.06793   0.89872   0.76547   0.00000  Uiso   1.00
H1118  H     0.03074   0.87983   0.78661   0.00000  Uiso   1.00
H1119  H     0.00962   0.89171   0.69650   0.00000  Uiso   1.00
H1120  H     0.04682   0.91046   0.67575   0.00000  Uiso   1.00
C1761  C     0.38556   0.76388   0.75976   0.00000  Uiso   1.00
C1762  C     0.40364   0.78095   0.74588   0.00000  Uiso   1.00
C1763  C     0.41427   0.80308   0.75714   0.00000  Uiso   1.00
C1764  C     0.40829   0.81118   0.78391   0.00000  Uiso   1.00
C1765  C     0.39010   0.79410   0.79767   0.00000  Uiso   1.00
C1766  C     0.37951   0.77198   0.78644   0.00000  Uiso   1.00
H1121  H     0.41033   0.77703   0.72439   0.00000  Uiso   1.00
H1122  H     0.42847   0.81485   0.74381   0.00000  Uiso   1.00
H1123  H     0.38359   0.79823   0.81915   0.00000  Uiso   1.00
H1124  H     0.36536   0.76030   0.79999   0.00000  Uiso   1.00
C1767  C     0.38704   0.83825   0.76985   0.00000  Uiso   1.00
C1768  C     0.40789   0.84751   0.78227   0.00000  Uiso   1.00
C1769  C     0.41617   0.86960   0.77998   0.00000  Uiso   1.00
C1770  C     0.40534   0.88065   0.76785   0.00000  Uiso   1.00
C1771  C     0.38418   0.87149   0.75570   0.00000  Uiso   1.00
C1772  C     0.37614   0.84921   0.75759   0.00000  Uiso   1.00
C1773  C     0.41994   0.83558   0.79659   0.00000  Uiso   1.00
C1774  C     0.44415   0.84781   0.78374   0.00000  Uiso   1.00
C1775  C     0.46246   0.85138   0.80114   0.00000  Uiso   1.00
C1776  C     0.48426   0.86223   0.78908   0.00000  Uiso   1.00
C1777  C     0.49164   0.87149   0.75732   0.00000  Uiso   1.00
C1778  C     0.47300   0.86775   0.74000   0.00000  Uiso   1.00
C1779  C     0.45124   0.85689   0.75220   0.00000  Uiso   1.00
C1780  C     0.41613   0.84926   0.85716   0.00000  Uiso   1.00
C1781  C     0.41572   0.84915   0.89345   0.00000  Uiso   1.00
C1782  C     0.41851   0.83532   0.91446   0.00000  Uiso   1.00
C1783  C     0.42180   0.82164   0.89398   0.00000  Uiso   1.00
C1784  C     0.42225   0.82177   0.85771   0.00000  Uiso   1.00
C1785  C     0.41939   0.83557   0.83669   0.00000  Uiso   1.00
C1786  C     0.41831   0.83514   0.95457   0.00000  Uiso   1.00
C1787  C     0.38155   0.76327   0.99110   0.00000  Uiso   1.00
C1788  C     0.39930   0.78006   0.00612   0.00000  Uiso   1.00
C1789  C     0.41076   0.80223   0.99492   0.00000  Uiso   1.00
C1790  C     0.40601   0.81067   0.96710   0.00000  Uiso   1.00
C1791  C     0.38818   0.79386   0.95214   0.00000  Uiso   1.00
C1792  C     0.37678   0.77169   0.96331   0.00000  Uiso   1.00
C1793  C     0.40620   0.84717   0.96807   0.00000  Uiso   1.00
C1794  C     0.41463   0.86925   0.97091   0.00000  Uiso   1.00
C1795  C     0.40376   0.88029   0.98271   0.00000  Uiso   1.00
C1796  C     0.38239   0.87115   0.99388   0.00000  Uiso   1.00
C1797  C     0.37409   0.84887   0.99100   0.00000  Uiso   1.00
C1798  C     0.38505   0.83792   0.97911   0.00000  Uiso   1.00
C1799  C     0.44929   0.85593   0.99984   0.00000  Uiso   1.00
C1800  C     0.47099   0.86677   0.01226   0.00000  Uiso   1.00
C1801  C     0.48974   0.87076   0.99505   0.00000  Uiso   1.00
C1802  C     0.48251   0.86171   0.96319   0.00000  Uiso   1.00
C1803  C     0.46076   0.85087   0.95092   0.00000  Uiso   1.00
C1804  C     0.44235   0.84712   0.96815   0.00000  Uiso   1.00
H1125  H     0.37844   0.82077   0.76989   0.00000  Uiso   1.00
H1126  H     0.43266   0.87908   0.78875   0.00000  Uiso   1.00
H1127  H     0.41418   0.89804   0.76803   0.00000  Uiso   1.00
H1128  H     0.35976   0.83947   0.74889   0.00000  Uiso   1.00
H1129  H     0.45944   0.84509   0.82658   0.00000  Uiso   1.00
H1130  H     0.49671   0.86363   0.80603   0.00000  Uiso   1.00
H1131  H     0.47568   0.87388   0.71459   0.00000  Uiso   1.00
H1132  H     0.43848   0.85528   0.73557   0.00000  Uiso   1.00
H1133  H     0.41362   0.86108   0.84393   0.00000  Uiso   1.00
H1134  H     0.41296   0.86091   0.90623   0.00000  Uiso   1.00
H1135  H     0.42424   0.80978   0.90730   0.00000  Uiso   1.00
H1136  H     0.42499   0.81001   0.84486   0.00000  Uiso   1.00
H1137  H     0.40499   0.77584   0.02857   0.00000  Uiso   1.00
H1138  H     0.42453   0.81375   0.00929   0.00000  Uiso   1.00
H1139  H     0.38262   0.79829   0.92977   0.00000  Uiso   1.00
H1140  H     0.36302   0.76028   0.94875   0.00000  Uiso   1.00
H1141  H     0.43134   0.87872   0.96310   0.00000  Uiso   1.00
H1142  H     0.41278   0.89768   0.98328   0.00000  Uiso   1.00
H1143  H     0.35749   0.83914   0.99869   0.00000  Uiso   1.00
H1144  H     0.37626   0.82046   0.97836   0.00000  Uiso   1.00
H1145  H     0.43644   0.85419   0.01636   0.00000  Uiso   1.00
H1146  H     0.47358   0.87274   0.03771   0.00000  Uiso   1.00
H1147  H     0.49503   0.86329   0.94628   0.00000  Uiso   1.00
H1148  H     0.45789   0.84482   0.92538   0.00000  Uiso   1.00
C1805  C     0.37069   0.99066   0.50709   0.00000  Uiso   1.00
C1806  C     0.35151   0.97335   0.49487   0.00000  Uiso   1.00
C1807  C     0.34060   0.95156   0.50698   0.00000  Uiso   1.00
C1808  C     0.34680   0.94314   0.53338   0.00000  Uiso   1.00
C1809  C     0.36563   0.96020   0.54600   0.00000  Uiso   1.00
C1810  C     0.37665   0.98200   0.53397   0.00000  Uiso   1.00
H1149  H     0.34446   0.97721   0.47383   0.00000  Uiso   1.00
H1150  H     0.32584   0.93998   0.49455   0.00000  Uiso   1.00
H1151  H     0.37240   0.95598   0.56720   0.00000  Uiso   1.00
H1152  H     0.39130   0.99330   0.54667   0.00000  Uiso   1.00
C1811  C     0.36796   0.91614   0.52021   0.00000  Uiso   1.00
C1812  C     0.34710   0.90690   0.53254   0.00000  Uiso   1.00
C1813  C     0.33881   0.88482   0.53056   0.00000  Uiso   1.00
C1814  C     0.34964   0.87373   0.51868   0.00000  Uiso   1.00
C1815  C     0.37077   0.88286   0.50644   0.00000  Uiso   1.00
C1816  C     0.37886   0.90515   0.50822   0.00000  Uiso   1.00
C1817  C     0.33508   0.91896   0.54651   0.00000  Uiso   1.00
C1818  C     0.31081   0.90664   0.53381   0.00000  Uiso   1.00
C1819  C     0.29246   0.90242   0.55165   0.00000  Uiso   1.00
C1820  C     0.27063   0.89154   0.53973   0.00000  Uiso   1.00
C1821  C     0.26327   0.88295   0.50766   0.00000  Uiso   1.00
C1822  C     0.28194   0.88721   0.48997   0.00000  Uiso   1.00
C1823  C     0.30372   0.89806   0.50207   0.00000  Uiso   1.00
C1824  C     0.33900   0.90550   0.60732   0.00000  Uiso   1.00
C1825  C     0.33936   0.90563   0.64362   0.00000  Uiso   1.00
C1826  C     0.33643   0.91940   0.66441   0.00000  Uiso   1.00
C1827  C     0.33325   0.93313   0.64375   0.00000  Uiso   1.00
C1828  C     0.33289   0.93299   0.60746   0.00000  Uiso   1.00
C1829  C     0.33571   0.91914   0.58667   0.00000  Uiso   1.00
C1830  C     0.33638   0.91930   0.70458   0.00000  Uiso   1.00
C1831  C     0.37213   0.99091   0.74390   0.00000  Uiso   1.00
C1832  C     0.35389   0.97322   0.75772   0.00000  Uiso   1.00
C1833  C     0.34296   0.95145   0.74562   0.00000  Uiso   1.00
C1834  C     0.34822   0.94345   0.71769   0.00000  Uiso   1.00
C1835  C     0.36626   0.96084   0.70374   0.00000  Uiso   1.00
C1836  C     0.37723   0.98264   0.71565   0.00000  Uiso   1.00
C1837  C     0.34858   0.90725   0.71794   0.00000  Uiso   1.00
C1838  C     0.34037   0.88516   0.71976   0.00000  Uiso   1.00
C1839  C     0.35133   0.87408   0.73123   0.00000  Uiso   1.00
C1840  C     0.37252   0.88322   0.74321   0.00000  Uiso   1.00
C1841  C     0.38060   0.90550   0.74132   0.00000  Uiso   1.00
C1842  C     0.36957   0.91649   0.72969   0.00000  Uiso   1.00
C1843  C     0.30519   0.89738   0.74909   0.00000  Uiso   1.00
C1844  C     0.28346   0.88639   0.76141   0.00000  Uiso   1.00
C1845  C     0.26481   0.88307   0.74454   0.00000  Uiso   1.00
C1846  C     0.27214   0.89281   0.71306   0.00000  Uiso   1.00
C1847  C     0.29392   0.90377   0.70089   0.00000  Uiso   1.00
C1848  C     0.31223   0.90696   0.71786   0.00000  Uiso   1.00
H1153  H     0.37660   0.93361   0.52003   0.00000  Uiso   1.00
H1154  H     0.32231   0.87536   0.53934   0.00000  Uiso   1.00
H1155  H     0.34079   0.85634   0.51904   0.00000  Uiso   1.00
H1156  H     0.39524   0.91487   0.49950   0.00000  Uiso   1.00
H1157  H     0.29549   0.90822   0.57734   0.00000  Uiso   1.00
H1158  H     0.25815   0.88960   0.55702   0.00000  Uiso   1.00
H1159  H     0.27926   0.88157   0.46432   0.00000  Uiso   1.00
H1160  H     0.31652   0.90013   0.48513   0.00000  Uiso   1.00
H1161  H     0.34153   0.89366   0.59428   0.00000  Uiso   1.00
H1162  H     0.34211   0.89387   0.65654   0.00000  Uiso   1.00
H1163  H     0.33076   0.94497   0.65687   0.00000  Uiso   1.00
H1164  H     0.33016   0.94474   0.59440   0.00000  Uiso   1.00
H1165  H     0.34763   0.97672   0.78005   0.00000  Uiso   1.00
H1166  H     0.32897   0.93954   0.75934   0.00000  Uiso   1.00
H1167  H     0.37231   0.95695   0.68137   0.00000  Uiso   1.00
H1168  H     0.39112   0.99426   0.70167   0.00000  Uiso   1.00
H1169  H     0.32381   0.87569   0.71129   0.00000  Uiso   1.00
H1170  H     0.34250   0.85669   0.73091   0.00000  Uiso   1.00
H1171  H     0.39704   0.91523   0.74972   0.00000  Uiso   1.00
H1172  H     0.37817   0.93396   0.72978   0.00000  Uiso   1.00
H1173  H     0.31796   0.89862   0.76537   0.00000  Uiso   1.00
H1174  H     0.28078   0.87979   0.78652   0.00000  Uiso   1.00
H1175  H     0.25970   0.89178   0.69645   0.00000  Uiso   1.00
H1176  H     0.29689   0.91047   0.67569   0.00000  Uiso   1.00
C1849  C     0.63347   0.51437   0.25672   0.00000  Uiso   1.00
C1850  C     0.65168   0.53209   0.24289   0.00000  Uiso   1.00
C1851  C     0.66277   0.55378   0.25525   0.00000  Uiso   1.00
C1852  C     0.65766   0.56172   0.28345   0.00000  Uiso   1.00
C1853  C     0.63948   0.54436   0.29717   0.00000  Uiso   1.00
C1854  C     0.62839   0.52263   0.28502   0.00000  Uiso   1.00
H1177  H     0.65788   0.52863   0.22043   0.00000  Uiso   1.00
H1178  H     0.67678   0.56569   0.24159   0.00000  Uiso   1.00
H1179  H     0.63348   0.54823   0.31961   0.00000  Uiso   1.00
H1180  H     0.61447   0.51100   0.29894   0.00000  Uiso   1.00
C1855  C     0.63742   0.58956   0.27055   0.00000  Uiso   1.00
C1856  C     0.65814   0.59839   0.28288   0.00000  Uiso   1.00
C1857  C     0.66701   0.62048   0.28113   0.00000  Uiso   1.00
C1858  C     0.65659   0.63209   0.26888   0.00000  Uiso   1.00
C1859  C     0.63589   0.62325   0.25655   0.00000  Uiso   1.00
C1860  C     0.62704   0.60120   0.25821   0.00000  Uiso   1.00
C1861  C     0.66974   0.58575   0.29689   0.00000  Uiso   1.00
C1862  C     0.69397   0.59775   0.28409   0.00000  Uiso   1.00
C1863  C     0.71217   0.60074   0.30121   0.00000  Uiso   1.00
C1864  C     0.73398   0.61153   0.28921   0.00000  Uiso   1.00
C1865  C     0.74148   0.62131   0.25779   0.00000  Uiso   1.00
C1866  C     0.72294   0.61808   0.24069   0.00000  Uiso   1.00
C1867  C     0.70118   0.60727   0.25284   0.00000  Uiso   1.00
C1868  C     0.66616   0.59941   0.35742   0.00000  Uiso   1.00
C1869  C     0.66582   0.59937   0.39372   0.00000  Uiso   1.00
C1870  C     0.66834   0.58539   0.41476   0.00000  Uiso   1.00
C1871  C     0.67115   0.57138   0.39431   0.00000  Uiso   1.00
C1872  C     0.67156   0.57147   0.35804   0.00000  Uiso   1.00
C1873  C     0.66910   0.58550   0.33698   0.00000  Uiso   1.00
C1874  C     0.66839   0.58562   0.45487   0.00000  Uiso   1.00
C1875  C     0.63192   0.51407   0.49482   0.00000  Uiso   1.00
C1876  C     0.65083   0.53144   0.50763   0.00000  Uiso   1.00
C1877  C     0.66193   0.55320   0.49542   0.00000  Uiso   1.00
C1878  C     0.65621   0.56155   0.46831   0.00000  Uiso   1.00
C1879  C     0.63748   0.54449   0.45541   0.00000  Uiso   1.00
C1880  C     0.62627   0.52272   0.46755   0.00000  Uiso   1.00
C1881  C     0.65656   0.59825   0.46781   0.00000  Uiso   1.00
C1882  C     0.66565   0.62032   0.47032   0.00000  Uiso   1.00
C1883  C     0.65505   0.63199   0.48129   0.00000  Uiso   1.00
C1884  C     0.63388   0.62321   0.49137   0.00000  Uiso   1.00
C1885  C     0.62481   0.60117   0.48900   0.00000  Uiso   1.00
C1886  C     0.63540   0.58948   0.47803   0.00000  Uiso   1.00
C1887  C     0.69945   0.60636   0.49993   0.00000  Uiso   1.00
C1888  C     0.72117   0.61716   0.51230   0.00000  Uiso   1.00
C1889  C     0.73990   0.62124   0.49496   0.00000  Uiso   1.00
C1890  C     0.73264   0.61236   0.46300   0.00000  Uiso   1.00
C1891  C     0.71088   0.60155   0.45080   0.00000  Uiso   1.00
C1892  C     0.69248   0.59766   0.46819   0.00000  Uiso   1.00
H1181  H     0.62847   0.57213   0.27043   0.00000  Uiso   1.00
H1182  H     0.68345   0.62953   0.29008   0.00000  Uiso   1.00
H1183  H     0.66569   0.64953   0.26917   0.00000  Uiso   1.00
H1184  H     0.61061   0.59197   0.24925   0.00000  Uiso   1.00
H1185  H     0.70903   0.59403   0.32640   0.00000  Uiso   1.00
H1186  H     0.74634   0.61247   0.30593   0.00000  Uiso   1.00
H1187  H     0.72573   0.62466   0.21556   0.00000  Uiso   1.00
H1188  H     0.68851   0.60615   0.23643   0.00000  Uiso   1.00
H1189  H     0.66395   0.61143   0.34419   0.00000  Uiso   1.00
H1190  H     0.66342   0.61138   0.40645   0.00000  Uiso   1.00
H1191  H     0.67331   0.55937   0.40768   0.00000  Uiso   1.00
H1192  H     0.67400   0.55950   0.34523   0.00000  Uiso   1.00
H1193  H     0.65756   0.52763   0.52915   0.00000  Uiso   1.00
H1194  H     0.67651   0.56479   0.50824   0.00000  Uiso   1.00
H1195  H     0.63104   0.54866   0.43373   0.00000  Uiso   1.00
H1196  H     0.61181   0.51139   0.45445   0.00000  Uiso   1.00
H1197  H     0.68244   0.62932   0.46300   0.00000  Uiso   1.00
H1198  H     0.66437   0.64941   0.48182   0.00000  Uiso   1.00
H1199  H     0.60800   0.59199   0.49620   0.00000  Uiso   1.00
H1200  H     0.62619   0.57207   0.47737   0.00000  Uiso   1.00
H1201  H     0.68661   0.60452   0.51657   0.00000  Uiso   1.00
H1202  H     0.72377   0.62300   0.53783   0.00000  Uiso   1.00
H1203  H     0.74516   0.61405   0.44599   0.00000  Uiso   1.00
H1204  H     0.70795   0.59560   0.42519   0.00000  Uiso   1.00
C1893  C     0.88380   0.51405   0.25686   0.00000  Uiso   1.00
C1894  C     0.90184   0.53182   0.24276   0.00000  Uiso   1.00
C1895  C     0.91289   0.55354   0.25504   0.00000  Uiso   1.00
C1896  C     0.90790   0.56144   0.28339   0.00000  Uiso   1.00
C1897  C     0.88998   0.54401   0.29750   0.00000  Uiso   1.00
C1898  C     0.87893   0.52224   0.28546   0.00000  Uiso   1.00
H1205  H     0.90787   0.52840   0.22008   0.00000  Uiso   1.00
H1206  H     0.92671   0.56550   0.24108   0.00000  Uiso   1.00
H1207  H     0.88410   0.54782   0.32014   0.00000  Uiso   1.00
H1208  H     0.86520   0.51055   0.29966   0.00000  Uiso   1.00
C1899  C     0.88687   0.58849   0.27073   0.00000  Uiso   1.00
C1900  C     0.90786   0.59771   0.28249   0.00000  Uiso   1.00
C1901  C     0.91627   0.61980   0.27984   0.00000  Uiso   1.00
C1902  C     0.90546   0.63089   0.26777   0.00000  Uiso   1.00
C1903  C     0.88420   0.62177   0.25611   0.00000  Uiso   1.00
C1904  C     0.87598   0.59948   0.25854   0.00000  Uiso   1.00
C1905  C     0.91980   0.58557   0.29658   0.00000  Uiso   1.00
C1906  C     0.94405   0.59775   0.28373   0.00000  Uiso   1.00
C1907  C     0.96229   0.60102   0.30102   0.00000  Uiso   1.00
C1908  C     0.98411   0.61188   0.28904   0.00000  Uiso   1.00
C1909  C     0.99156   0.62142   0.25746   0.00000  Uiso   1.00
C1910  C     0.97298   0.61793   0.24023   0.00000  Uiso   1.00
C1911  C     0.95120   0.60708   0.25238   0.00000  Uiso   1.00
C1912  C     0.91640   0.59947   0.35710   0.00000  Uiso   1.00
C1913  C     0.91603   0.59945   0.39341   0.00000  Uiso   1.00
C1914  C     0.91844   0.58543   0.41447   0.00000  Uiso   1.00
C1915  C     0.92125   0.57140   0.39409   0.00000  Uiso   1.00
C1916  C     0.92170   0.57146   0.35781   0.00000  Uiso   1.00
C1917  C     0.91924   0.58547   0.33673   0.00000  Uiso   1.00
C1918  C     0.91845   0.58552   0.45464   0.00000  Uiso   1.00
C1919  C     0.88240   0.51386   0.49421   0.00000  Uiso   1.00
C1920  C     0.90136   0.53122   0.50690   0.00000  Uiso   1.00
C1921  C     0.91240   0.55299   0.49473   0.00000  Uiso   1.00
C1922  C     0.90655   0.56134   0.46779   0.00000  Uiso   1.00
C1923  C     0.88791   0.54425   0.45478   0.00000  Uiso   1.00
C1924  C     0.87677   0.52246   0.46686   0.00000  Uiso   1.00
C1925  C     0.90629   0.59755   0.46808   0.00000  Uiso   1.00
C1926  C     0.91461   0.61963   0.47048   0.00000  Uiso   1.00
C1927  C     0.90372   0.63066   0.48228   0.00000  Uiso   1.00
C1928  C     0.88244   0.62149   0.49387   0.00000  Uiso   1.00
C1929  C     0.87425   0.59921   0.49144   0.00000  Uiso   1.00
C1930  C     0.88524   0.58828   0.47957   0.00000  Uiso   1.00
C1931  C     0.94957   0.60675   0.49951   0.00000  Uiso   1.00
C1932  C     0.97129   0.61761   0.51187   0.00000  Uiso   1.00
C1933  C     0.98999   0.62144   0.49471   0.00000  Uiso   1.00
C1934  C     0.98274   0.61234   0.46288   0.00000  Uiso   1.00
C1935  C     0.96097   0.60148   0.45067   0.00000  Uiso   1.00
C1936  C     0.94259   0.59777   0.46794   0.00000  Uiso   1.00
H1209  H     0.87814   0.57101   0.27120   0.00000  Uiso   1.00
H1210  H     0.93287   0.62926   0.28815   0.00000  Uiso   1.00
H1211  H     0.91441   0.64828   0.26753   0.00000  Uiso   1.00
H1212  H     0.85949   0.58976   0.25033   0.00000  Uiso   1.00
H1213  H     0.95919   0.59448   0.32633   0.00000  Uiso   1.00
H1214  H     0.99650   0.61305   0.30589   0.00000  Uiso   1.00
H1215  H     0.97573   0.62431   0.21497   0.00000  Uiso   1.00
H1216  H     0.93851   0.60574   0.23582   0.00000  Uiso   1.00
H1217  H     0.91426   0.61150   0.34380   0.00000  Uiso   1.00
H1218  H     0.91368   0.61151   0.40609   0.00000  Uiso   1.00
H1219  H     0.92336   0.55937   0.40750   0.00000  Uiso   1.00
H1220  H     0.92411   0.55945   0.34506   0.00000  Uiso   1.00
H1221  H     0.90813   0.52742   0.52838   0.00000  Uiso   1.00
H1222  H     0.92696   0.56463   0.50756   0.00000  Uiso   1.00
H1223  H     0.88141   0.54842   0.43316   0.00000  Uiso   1.00
H1224  H     0.86231   0.51111   0.45377   0.00000  Uiso   1.00
H1225  H     0.93125   0.62913   0.46232   0.00000  Uiso   1.00
H1226  H     0.91264   0.64805   0.48248   0.00000  Uiso   1.00
H1227  H     0.85773   0.58946   0.49953   0.00000  Uiso   1.00
H1228  H     0.87653   0.57080   0.47929   0.00000  Uiso   1.00
H1229  H     0.93674   0.60506   0.51603   0.00000  Uiso   1.00
H1230  H     0.97391   0.62368   0.53727   0.00000  Uiso   1.00
H1231  H     0.99523   0.61384   0.44600   0.00000  Uiso   1.00
H1232  H     0.95803   0.59530   0.42520   0.00000  Uiso   1.00
C1937  C     0.87054   0.74074   0.00728   0.00000  Uiso   1.00
C1938  C     0.85136   0.72344   0.99505   0.00000  Uiso   1.00
C1939  C     0.84042   0.70165   0.00717   0.00000  Uiso   1.00
C1940  C     0.84660   0.69322   0.03358   0.00000  Uiso   1.00
C1941  C     0.86541   0.71027   0.04626   0.00000  Uiso   1.00
C1942  C     0.87645   0.73208   0.03423   0.00000  Uiso   1.00
H1233  H     0.84434   0.72731   0.97398   0.00000  Uiso   1.00
H1234  H     0.82568   0.69008   0.99469   0.00000  Uiso   1.00
H1235  H     0.87214   0.70605   0.06750   0.00000  Uiso   1.00
H1236  H     0.89109   0.74337   0.04697   0.00000  Uiso   1.00
C1943  C     0.86784   0.66635   0.02030   0.00000  Uiso   1.00
C1944  C     0.84698   0.65705   0.03265   0.00000  Uiso   1.00
C1945  C     0.83875   0.63497   0.03062   0.00000  Uiso   1.00
C1946  C     0.84963   0.62395   0.01869   0.00000  Uiso   1.00
C1947  C     0.87077   0.63315   0.00645   0.00000  Uiso   1.00
C1948  C     0.87880   0.65543   0.00825   0.00000  Uiso   1.00
C1949  C     0.83490   0.66903   0.04666   0.00000  Uiso   1.00
C1950  C     0.81063   0.65667   0.03396   0.00000  Uiso   1.00
C1951  C     0.79226   0.65233   0.05184   0.00000  Uiso   1.00
C1952  C     0.77042   0.64137   0.03996   0.00000  Uiso   1.00
C1953  C     0.76307   0.63280   0.00787   0.00000  Uiso   1.00
C1954  C     0.78176   0.63720   0.99012   0.00000  Uiso   1.00
C1955  C     0.80355   0.64813   0.00219   0.00000  Uiso   1.00
C1956  C     0.83883   0.65555   0.10745   0.00000  Uiso   1.00
C1957  C     0.83917   0.65566   0.14376   0.00000  Uiso   1.00
C1958  C     0.83621   0.66939   0.16456   0.00000  Uiso   1.00
C1959  C     0.83300   0.68311   0.14392   0.00000  Uiso   1.00
C1960  C     0.83265   0.68299   0.10763   0.00000  Uiso   1.00
C1961  C     0.83551   0.66918   0.08682   0.00000  Uiso   1.00
C1962  C     0.83618   0.66930   0.20473   0.00000  Uiso   1.00
C1963  C     0.87197   0.74092   0.24401   0.00000  Uiso   1.00
C1964  C     0.85373   0.72324   0.25784   0.00000  Uiso   1.00
C1965  C     0.84276   0.70148   0.24575   0.00000  Uiso   1.00
C1966  C     0.84800   0.69347   0.21780   0.00000  Uiso   1.00
C1967  C     0.86601   0.71084   0.20379   0.00000  Uiso   1.00
C1968  C     0.87702   0.73264   0.21570   0.00000  Uiso   1.00
C1969  C     0.84846   0.65734   0.21812   0.00000  Uiso   1.00
C1970  C     0.84030   0.63526   0.22007   0.00000  Uiso   1.00
C1971  C     0.85131   0.62426   0.23164   0.00000  Uiso   1.00
C1972  C     0.87252   0.63347   0.24356   0.00000  Uiso   1.00
C1973  C     0.88056   0.65574   0.24150   0.00000  Uiso   1.00
C1974  C     0.86948   0.66665   0.22979   0.00000  Uiso   1.00
C1975  C     0.80504   0.64733   0.24931   0.00000  Uiso   1.00
C1976  C     0.78332   0.63629   0.26166   0.00000  Uiso   1.00
C1977  C     0.76465   0.63294   0.24484   0.00000  Uiso   1.00
C1978  C     0.77194   0.64270   0.21336   0.00000  Uiso   1.00
C1979  C     0.79370   0.65369   0.20114   0.00000  Uiso   1.00
C1980  C     0.81204   0.65692   0.21807   0.00000  Uiso   1.00
H1237  H     0.87643   0.68382   0.02015   0.00000  Uiso   1.00
H1238  H     0.82226   0.62547   0.03940   0.00000  Uiso   1.00
H1239  H     0.84083   0.60656   0.01903   0.00000  Uiso   1.00
H1240  H     0.89517   0.66519   0.99954   0.00000  Uiso   1.00
H1241  H     0.79527   0.65808   0.07757   0.00000  Uiso   1.00
H1242  H     0.75793   0.63934   0.05729   0.00000  Uiso   1.00
H1243  H     0.77910   0.63161   0.96444   0.00000  Uiso   1.00
H1244  H     0.81636   0.65030   0.98520   0.00000  Uiso   1.00
H1245  H     0.84139   0.64373   0.09440   0.00000  Uiso   1.00
H1246  H     0.84195   0.64390   0.15666   0.00000  Uiso   1.00
H1247  H     0.83047   0.69493   0.15706   0.00000  Uiso   1.00
H1248  H     0.82989   0.69473   0.09459   0.00000  Uiso   1.00
H1249  H     0.84750   0.72675   0.28020   0.00000  Uiso   1.00
H1250  H     0.82879   0.68957   0.25950   0.00000  Uiso   1.00
H1251  H     0.87203   0.70694   0.18139   0.00000  Uiso   1.00
H1252  H     0.89090   0.74426   0.20169   0.00000  Uiso   1.00
H1253  H     0.82372   0.62574   0.21166   0.00000  Uiso   1.00
H1254  H     0.84251   0.60687   0.23144   0.00000  Uiso   1.00
H1255  H     0.89702   0.66552   0.24983   0.00000  Uiso   1.00
H1256  H     0.87804   0.68413   0.22976   0.00000  Uiso   1.00
H1257  H     0.81784   0.64860   0.26555   0.00000  Uiso   1.00
H1258  H     0.78067   0.62970   0.28678   0.00000  Uiso   1.00
H1259  H     0.75948   0.64164   0.19677   0.00000  Uiso   1.00
H1260  H     0.79665   0.66039   0.17594   0.00000  Uiso   1.00
C1981  C     0.63552   0.76387   0.25973   0.00000  Uiso   1.00
C1982  C     0.65361   0.78095   0.24586   0.00000  Uiso   1.00
C1983  C     0.66423   0.80307   0.25714   0.00000  Uiso   1.00
C1984  C     0.65825   0.81117   0.28393   0.00000  Uiso   1.00
C1985  C     0.64006   0.79407   0.29768   0.00000  Uiso   1.00
C1986  C     0.62948   0.77196   0.28642   0.00000  Uiso   1.00
H1261  H     0.66029   0.77704   0.22436   0.00000  Uiso   1.00
H1262  H     0.67843   0.81485   0.24382   0.00000  Uiso   1.00
H1263  H     0.63355   0.79820   0.31917   0.00000  Uiso   1.00
H1264  H     0.61532   0.76027   0.29997   0.00000  Uiso   1.00
C1987  C     0.63701   0.83823   0.26988   0.00000  Uiso   1.00
C1988  C     0.65786   0.84749   0.28229   0.00000  Uiso   1.00
C1989  C     0.66614   0.86958   0.28000   0.00000  Uiso   1.00
C1990  C     0.65531   0.88063   0.26786   0.00000  Uiso   1.00
C1991  C     0.63416   0.87148   0.25570   0.00000  Uiso   1.00
C1992  C     0.62611   0.84919   0.25761   0.00000  Uiso   1.00
C1993  C     0.66991   0.83556   0.29663   0.00000  Uiso   1.00
C1994  C     0.69411   0.84779   0.28379   0.00000  Uiso   1.00
C1995  C     0.71243   0.85137   0.30120   0.00000  Uiso   1.00
C1996  C     0.73423   0.86222   0.28915   0.00000  Uiso   1.00
C1997  C     0.74161   0.87149   0.25740   0.00000  Uiso   1.00
C1998  C     0.72297   0.86774   0.24006   0.00000  Uiso   1.00
C1999  C     0.70121   0.85687   0.25226   0.00000  Uiso   1.00
C2000  C     0.66607   0.84924   0.35718   0.00000  Uiso   1.00
C2001  C     0.66565   0.84913   0.39347   0.00000  Uiso   1.00
C2002  C     0.66844   0.83532   0.41450   0.00000  Uiso   1.00
C2003  C     0.67175   0.82164   0.39403   0.00000  Uiso   1.00
C2004  C     0.67220   0.82177   0.35776   0.00000  Uiso   1.00
C2005  C     0.66934   0.83555   0.33672   0.00000  Uiso   1.00
C2006  C     0.66823   0.83514   0.45460   0.00000  Uiso   1.00
C2007  C     0.63148   0.76327   0.49110   0.00000  Uiso   1.00
C2008  C     0.64924   0.78005   0.50613   0.00000  Uiso   1.00
C2009  C     0.66069   0.80223   0.49494   0.00000  Uiso   1.00
C2010  C     0.65594   0.81067   0.46713   0.00000  Uiso   1.00
C2011  C     0.63810   0.79386   0.45216   0.00000  Uiso   1.00
C2012  C     0.62670   0.77169   0.46332   0.00000  Uiso   1.00
C2013  C     0.65610   0.84716   0.46809   0.00000  Uiso   1.00
C2014  C     0.66451   0.86923   0.47091   0.00000  Uiso   1.00
C2015  C     0.65361   0.88026   0.48269   0.00000  Uiso   1.00
C2016  C     0.63224   0.87110   0.49383   0.00000  Uiso   1.00
C2017  C     0.62396   0.84882   0.49098   0.00000  Uiso   1.00
C2018  C     0.63494   0.83789   0.47912   0.00000  Uiso   1.00
C2019  C     0.69918   0.85594   0.49989   0.00000  Uiso   1.00
C2020  C     0.72089   0.86681   0.51232   0.00000  Uiso   1.00
C2021  C     0.73964   0.87083   0.49512   0.00000  Uiso   1.00
C2022  C     0.73243   0.86178   0.46326   0.00000  Uiso   1.00
C2023  C     0.71069   0.85092   0.45098   0.00000  Uiso   1.00
C2024  C     0.69226   0.84714   0.46820   0.00000  Uiso   1.00
H1265  H     0.62840   0.82076   0.26993   0.00000  Uiso   1.00
H1266  H     0.68263   0.87906   0.28877   0.00000  Uiso   1.00
H1267  H     0.66415   0.89803   0.26803   0.00000  Uiso   1.00
H1268  H     0.60973   0.83945   0.24891   0.00000  Uiso   1.00
H1269  H     0.70939   0.84507   0.32664   0.00000  Uiso   1.00
H1270  H     0.74667   0.86363   0.30611   0.00000  Uiso   1.00
H1271  H     0.72566   0.87388   0.21466   0.00000  Uiso   1.00
H1272  H     0.68845   0.85527   0.23561   0.00000  Uiso   1.00
H1273  H     0.66355   0.86105   0.34393   0.00000  Uiso   1.00
H1274  H     0.66287   0.86090   0.40623   0.00000  Uiso   1.00
H1275  H     0.67419   0.80979   0.40737   0.00000  Uiso   1.00
H1276  H     0.67495   0.81000   0.34493   0.00000  Uiso   1.00
H1277  H     0.65492   0.77583   0.52857   0.00000  Uiso   1.00
H1278  H     0.67446   0.81375   0.50930   0.00000  Uiso   1.00
H1279  H     0.63254   0.79829   0.42980   0.00000  Uiso   1.00
H1280  H     0.61295   0.76028   0.44876   0.00000  Uiso   1.00
H1281  H     0.68121   0.87871   0.46310   0.00000  Uiso   1.00
H1282  H     0.66261   0.89765   0.48324   0.00000  Uiso   1.00
H1283  H     0.60736   0.83908   0.49868   0.00000  Uiso   1.00
H1284  H     0.62617   0.82043   0.47838   0.00000  Uiso   1.00
H1285  H     0.68633   0.85419   0.51641   0.00000  Uiso   1.00
H1286  H     0.72346   0.87277   0.53778   0.00000  Uiso   1.00
H1287  H     0.74496   0.86338   0.44636   0.00000  Uiso   1.00
H1288  H     0.70782   0.84487   0.42543   0.00000  Uiso   1.00
C2025  C     0.62048   0.99052   0.00701   0.00000  Uiso   1.00
C2026  C     0.60131   0.97323   0.99476   0.00000  Uiso   1.00
C2027  C     0.59035   0.95143   0.00684   0.00000  Uiso   1.00
C2028  C     0.59653   0.94299   0.03326   0.00000  Uiso   1.00
C2029  C     0.61535   0.96003   0.04593   0.00000  Uiso   1.00
C2030  C     0.62640   0.98184   0.03392   0.00000  Uiso   1.00
H1289  H     0.59429   0.97711   0.97369   0.00000  Uiso   1.00
H1290  H     0.57561   0.93987   0.99437   0.00000  Uiso   1.00
H1291  H     0.62208   0.95579   0.06715   0.00000  Uiso   1.00
H1292  H     0.64104   0.99312   0.04666   0.00000  Uiso   1.00
C2031  C     0.61772   0.91604   0.02010   0.00000  Uiso   1.00
C2032  C     0.59686   0.90678   0.03241   0.00000  Uiso   1.00
C2033  C     0.58859   0.88470   0.03042   0.00000  Uiso   1.00
C2034  C     0.59944   0.87364   0.01856   0.00000  Uiso   1.00
C2035  C     0.62058   0.88279   0.00636   0.00000  Uiso   1.00
C2036  C     0.62865   0.90507   0.00813   0.00000  Uiso   1.00
C2037  C     0.58482   0.91881   0.04640   0.00000  Uiso   1.00
C2038  C     0.56052   0.90643   0.03380   0.00000  Uiso   1.00
C2039  C     0.54217   0.90210   0.05173   0.00000  Uiso   1.00
C2040  C     0.52031   0.89107   0.03993   0.00000  Uiso   1.00
C2041  C     0.51292   0.88241   0.00791   0.00000  Uiso   1.00
C2042  C     0.53160   0.88681   0.99011   0.00000  Uiso   1.00
C2043  C     0.55341   0.89781   0.00208   0.00000  Uiso   1.00
C2044  C     0.58888   0.90543   0.10718   0.00000  Uiso   1.00
C2045  C     0.58931   0.90560   0.14349   0.00000  Uiso   1.00
C2046  C     0.58641   0.91937   0.16429   0.00000  Uiso   1.00
C2047  C     0.58320   0.93308   0.14364   0.00000  Uiso   1.00
C2048  C     0.58273   0.93289   0.10736   0.00000  Uiso   1.00
C2049  C     0.58552   0.91903   0.08655   0.00000  Uiso   1.00
C2050  C     0.58638   0.91928   0.20445   0.00000  Uiso   1.00
C2051  C     0.62212   0.99087   0.24388   0.00000  Uiso   1.00
C2052  C     0.60387   0.97317   0.25766   0.00000  Uiso   1.00
C2053  C     0.59293   0.95141   0.24552   0.00000  Uiso   1.00
C2054  C     0.59821   0.94343   0.21758   0.00000  Uiso   1.00
C2055  C     0.61625   0.96082   0.20366   0.00000  Uiso   1.00
C2056  C     0.62723   0.98261   0.21561   0.00000  Uiso   1.00
C2057  C     0.59857   0.90723   0.21784   0.00000  Uiso   1.00
C2058  C     0.59036   0.88514   0.21968   0.00000  Uiso   1.00
C2059  C     0.60131   0.87406   0.23119   0.00000  Uiso   1.00
C2060  C     0.62250   0.88320   0.24319   0.00000  Uiso   1.00
C2061  C     0.63058   0.90549   0.24129   0.00000  Uiso   1.00
C2062  C     0.61956   0.91647   0.22962   0.00000  Uiso   1.00
C2063  C     0.55518   0.89740   0.24896   0.00000  Uiso   1.00
C2064  C     0.53344   0.88642   0.26126   0.00000  Uiso   1.00
C2065  C     0.51480   0.88309   0.24437   0.00000  Uiso   1.00
C2066  C     0.52214   0.89278   0.21285   0.00000  Uiso   1.00
C2067  C     0.54391   0.90372   0.20069   0.00000  Uiso   1.00
C2068  C     0.56222   0.90695   0.21771   0.00000  Uiso   1.00
H1293  H     0.62635   0.93351   0.01993   0.00000  Uiso   1.00
H1294  H     0.57209   0.87522   0.03919   0.00000  Uiso   1.00
H1295  H     0.59061   0.85624   0.01891   0.00000  Uiso   1.00
H1296  H     0.64504   0.91481   0.99944   0.00000  Uiso   1.00
H1297  H     0.54523   0.90791   0.07742   0.00000  Uiso   1.00
H1298  H     0.50784   0.88906   0.05730   0.00000  Uiso   1.00
H1299  H     0.52890   0.88115   0.96447   0.00000  Uiso   1.00
H1300  H     0.56619   0.89996   0.98506   0.00000  Uiso   1.00
H1301  H     0.59139   0.89358   0.09413   0.00000  Uiso   1.00
H1302  H     0.59209   0.89385   0.15639   0.00000  Uiso   1.00
H1303  H     0.58072   0.94494   0.15678   0.00000  Uiso   1.00
H1304  H     0.57997   0.94463   0.09431   0.00000  Uiso   1.00
H1305  H     0.59759   0.97666   0.27999   0.00000  Uiso   1.00
H1306  H     0.57894   0.93949   0.25922   0.00000  Uiso   1.00
H1307  H     0.62231   0.95694   0.18129   0.00000  Uiso   1.00
H1308  H     0.64112   0.99425   0.20165   0.00000  Uiso   1.00
H1309  H     0.57380   0.87567   0.21120   0.00000  Uiso   1.00
H1310  H     0.59249   0.85667   0.23088   0.00000  Uiso   1.00
H1311  H     0.64702   0.91522   0.24971   0.00000  Uiso   1.00
H1312  H     0.62816   0.93395   0.22970   0.00000  Uiso   1.00
H1313  H     0.56795   0.89866   0.26527   0.00000  Uiso   1.00
H1314  H     0.53076   0.87986   0.28640   0.00000  Uiso   1.00
H1315  H     0.50969   0.89172   0.19621   0.00000  Uiso   1.00
H1316  H     0.54689   0.91038   0.17548   0.00000  Uiso   1.00
C2069  C     0.88375   0.76406   0.25694   0.00000  Uiso   1.00
C2070  C     0.90179   0.78181   0.24283   0.00000  Uiso   1.00
C2071  C     0.91287   0.80353   0.25510   0.00000  Uiso   1.00
C2072  C     0.90790   0.81144   0.28346   0.00000  Uiso   1.00
C2073  C     0.88999   0.79402   0.29760   0.00000  Uiso   1.00
C2074  C     0.87891   0.77226   0.28556   0.00000  Uiso   1.00
H1317  H     0.90780   0.77839   0.22013   0.00000  Uiso   1.00
H1318  H     0.92669   0.81549   0.24113   0.00000  Uiso   1.00
H1319  H     0.88412   0.79785   0.32025   0.00000  Uiso   1.00
H1320  H     0.86519   0.76058   0.29978   0.00000  Uiso   1.00
C2075  C     0.88690   0.83851   0.27077   0.00000  Uiso   1.00
C2076  C     0.90789   0.84773   0.28253   0.00000  Uiso   1.00
C2077  C     0.91631   0.86982   0.27985   0.00000  Uiso   1.00
C2078  C     0.90552   0.88092   0.26775   0.00000  Uiso   1.00
C2079  C     0.88425   0.87180   0.25609   0.00000  Uiso   1.00
C2080  C     0.87602   0.84951   0.25855   0.00000  Uiso   1.00
C2081  C     0.91982   0.83558   0.29663   0.00000  Uiso   1.00
C2082  C     0.94407   0.84774   0.28379   0.00000  Uiso   1.00
C2083  C     0.96231   0.85101   0.30108   0.00000  Uiso   1.00
C2084  C     0.98413   0.86186   0.28910   0.00000  Uiso   1.00
C2085  C     0.99158   0.87140   0.25752   0.00000  Uiso   1.00
C2086  C     0.97300   0.86791   0.24028   0.00000  Uiso   1.00
C2087  C     0.95122   0.85706   0.25242   0.00000  Uiso   1.00
C2088  C     0.91640   0.84949   0.35714   0.00000  Uiso   1.00
C2089  C     0.91602   0.84947   0.39345   0.00000  Uiso   1.00
C2090  C     0.91843   0.83545   0.41452   0.00000  Uiso   1.00
C2091  C     0.92126   0.82143   0.39416   0.00000  Uiso   1.00
C2092  C     0.92172   0.82149   0.35788   0.00000  Uiso   1.00
C2093  C     0.91925   0.83549   0.33679   0.00000  Uiso   1.00
C2094  C     0.91843   0.83555   0.45470   0.00000  Uiso   1.00
C2095  C     0.88237   0.76389   0.49425   0.00000  Uiso   1.00
C2096  C     0.90132   0.78124   0.50695   0.00000  Uiso   1.00
C2097  C     0.91237   0.80302   0.49478   0.00000  Uiso   1.00
C2098  C     0.90653   0.81137   0.46783   0.00000  Uiso   1.00
C2099  C     0.88789   0.79428   0.45481   0.00000  Uiso   1.00
C2100  C     0.87674   0.77249   0.46689   0.00000  Uiso   1.00
C2101  C     0.90623   0.84756   0.46810   0.00000  Uiso   1.00
C2102  C     0.91453   0.86963   0.47047   0.00000  Uiso   1.00
C2103  C     0.90360   0.88064   0.48221   0.00000  Uiso   1.00
C2104  C     0.88231   0.87144   0.49376   0.00000  Uiso   1.00
C2105  C     0.87416   0.84917   0.49138   0.00000  Uiso   1.00
C2106  C     0.88518   0.83826   0.47958   0.00000  Uiso   1.00
C2107  C     0.94954   0.85680   0.49956   0.00000  Uiso   1.00
C2108  C     0.97127   0.86767   0.51193   0.00000  Uiso   1.00
C2109  C     0.98997   0.87149   0.49477   0.00000  Uiso   1.00
C2110  C     0.98271   0.86240   0.46294   0.00000  Uiso   1.00
C2111  C     0.96095   0.85154   0.45073   0.00000  Uiso   1.00
C2112  C     0.94257   0.84782   0.46800   0.00000  Uiso   1.00
H1321  H     0.87816   0.82104   0.27126   0.00000  Uiso   1.00
H1322  H     0.93292   0.87927   0.28816   0.00000  Uiso   1.00
H1323  H     0.91448   0.89831   0.26749   0.00000  Uiso   1.00
H1324  H     0.85953   0.83980   0.25035   0.00000  Uiso   1.00
H1325  H     0.95921   0.84448   0.32639   0.00000  Uiso   1.00
H1326  H     0.99652   0.86303   0.30596   0.00000  Uiso   1.00
H1327  H     0.97575   0.87427   0.21501   0.00000  Uiso   1.00
H1328  H     0.93853   0.85572   0.23587   0.00000  Uiso   1.00
H1329  H     0.91425   0.86151   0.34383   0.00000  Uiso   1.00
H1330  H     0.91365   0.86152   0.40612   0.00000  Uiso   1.00
H1331  H     0.92337   0.80940   0.40758   0.00000  Uiso   1.00
H1332  H     0.92414   0.80948   0.34513   0.00000  Uiso   1.00
H1333  H     0.90809   0.77744   0.52844   0.00000  Uiso   1.00
H1334  H     0.92692   0.81465   0.50762   0.00000  Uiso   1.00
H1335  H     0.88140   0.79845   0.43319   0.00000  Uiso   1.00
H1336  H     0.86229   0.76114   0.45379   0.00000  Uiso   1.00
H1337  H     0.93116   0.87915   0.46233   0.00000  Uiso   1.00
H1338  H     0.91250   0.89803   0.48239   0.00000  Uiso   1.00
H1339  H     0.85764   0.83940   0.49945   0.00000  Uiso   1.00
H1340  H     0.87649   0.82079   0.47931   0.00000  Uiso   1.00
H1341  H     0.93671   0.85511   0.51609   0.00000  Uiso   1.00
H1342  H     0.97389   0.87374   0.53733   0.00000  Uiso   1.00
H1343  H     0.99521   0.86390   0.44606   0.00000  Uiso   1.00
H1344  H     0.95801   0.84535   0.42526   0.00000  Uiso   1.00
C2113  C     0.87045   0.99066   0.00711   0.00000  Uiso   1.00
C2114  C     0.85127   0.97339   0.99484   0.00000  Uiso   1.00
C2115  C     0.84028   0.95160   0.00694   0.00000  Uiso   1.00
C2116  C     0.84642   0.94315   0.03338   0.00000  Uiso   1.00
C2117  C     0.86523   0.96018   0.04609   0.00000  Uiso   1.00
C2118  C     0.87631   0.98199   0.03408   0.00000  Uiso   1.00
H1345  H     0.84428   0.97728   0.97374   0.00000  Uiso   1.00
H1346  H     0.82555   0.94003   0.99444   0.00000  Uiso   1.00
H1347  H     0.87194   0.95594   0.06735   0.00000  Uiso   1.00
H1348  H     0.89094   0.99326   0.04686   0.00000  Uiso   1.00
C2119  C     0.86765   0.91628   0.02008   0.00000  Uiso   1.00
C2120  C     0.84679   0.90697   0.03243   0.00000  Uiso   1.00
C2121  C     0.83857   0.88489   0.03040   0.00000  Uiso   1.00
C2122  C     0.84946   0.87388   0.01848   0.00000  Uiso   1.00
C2123  C     0.87061   0.88309   0.00628   0.00000  Uiso   1.00
C2124  C     0.87862   0.90536   0.00805   0.00000  Uiso   1.00
C2125  C     0.83472   0.91896   0.04648   0.00000  Uiso   1.00
C2126  C     0.81043   0.90656   0.03387   0.00000  Uiso   1.00
C2127  C     0.79207   0.90222   0.05180   0.00000  Uiso   1.00
C2128  C     0.77021   0.89117   0.04001   0.00000  Uiso   1.00
C2129  C     0.76283   0.88251   0.00798   0.00000  Uiso   1.00
C2130  C     0.78151   0.88693   0.99018   0.00000  Uiso   1.00
C2131  C     0.80332   0.89796   0.00215   0.00000  Uiso   1.00
C2132  C     0.83879   0.90554   0.10724   0.00000  Uiso   1.00
C2133  C     0.83925   0.90571   0.14354   0.00000  Uiso   1.00
C2134  C     0.83636   0.91949   0.16436   0.00000  Uiso   1.00
C2135  C     0.83311   0.93319   0.14373   0.00000  Uiso   1.00
C2136  C     0.83263   0.93300   0.10745   0.00000  Uiso   1.00
C2137  C     0.83543   0.91915   0.08663   0.00000  Uiso   1.00
C2138  C     0.83635   0.91941   0.20453   0.00000  Uiso   1.00
C2139  C     0.87213   0.99101   0.24391   0.00000  Uiso   1.00
C2140  C     0.85388   0.97332   0.25770   0.00000  Uiso   1.00
C2141  C     0.84292   0.95156   0.24557   0.00000  Uiso   1.00
C2142  C     0.84817   0.94357   0.21762   0.00000  Uiso   1.00
C2143  C     0.86619   0.96095   0.20365   0.00000  Uiso   1.00
C2144  C     0.87720   0.98274   0.21560   0.00000  Uiso   1.00
C2145  C     0.84860   0.90742   0.21795   0.00000  Uiso   1.00
C2146  C     0.84042   0.88535   0.21992   0.00000  Uiso   1.00
C2147  C     0.85140   0.87433   0.23154   0.00000  Uiso   1.00
C2148  C     0.87260   0.88351   0.24350   0.00000  Uiso   1.00
C2149  C     0.88066   0.90579   0.24144   0.00000  Uiso   1.00
C2150  C     0.86960   0.91672   0.22968   0.00000  Uiso   1.00
C2151  C     0.80517   0.89750   0.24906   0.00000  Uiso   1.00
C2152  C     0.78343   0.88649   0.26136   0.00000  Uiso   1.00
C2153  C     0.76478   0.88311   0.24446   0.00000  Uiso   1.00
C2154  C     0.77209   0.89278   0.21293   0.00000  Uiso   1.00
C2155  C     0.79387   0.90376   0.20077   0.00000  Uiso   1.00
C2156  C     0.81220   0.90704   0.21780   0.00000  Uiso   1.00
H1349  H     0.87624   0.93375   0.01992   0.00000  Uiso   1.00
H1350  H     0.82207   0.87539   0.03917   0.00000  Uiso   1.00
H1351  H     0.84067   0.85649   0.01882   0.00000  Uiso   1.00
H1352  H     0.89500   0.91513   0.99935   0.00000  Uiso   1.00
H1353  H     0.79512   0.90802   0.07750   0.00000  Uiso   1.00
H1354  H     0.75773   0.88914   0.05738   0.00000  Uiso   1.00
H1355  H     0.77882   0.88129   0.96454   0.00000  Uiso   1.00
H1356  H     0.81611   0.90012   0.98513   0.00000  Uiso   1.00
H1357  H     0.84131   0.89370   0.09417   0.00000  Uiso   1.00
H1358  H     0.84203   0.89396   0.15644   0.00000  Uiso   1.00
H1359  H     0.83063   0.94503   0.15689   0.00000  Uiso   1.00
H1360  H     0.82986   0.94473   0.09442   0.00000  Uiso   1.00
H1361  H     0.84763   0.97682   0.28006   0.00000  Uiso   1.00
H1362  H     0.82894   0.93965   0.25930   0.00000  Uiso   1.00
H1363  H     0.87223   0.95706   0.18126   0.00000  Uiso   1.00
H1364  H     0.89108   0.99437   0.20162   0.00000  Uiso   1.00
H1365  H     0.82385   0.87584   0.21147   0.00000  Uiso   1.00
H1366  H     0.84259   0.85693   0.23133   0.00000  Uiso   1.00
H1367  H     0.89710   0.91556   0.24982   0.00000  Uiso   1.00
H1368  H     0.87818   0.93419   0.22965   0.00000  Uiso   1.00
H1369  H     0.81794   0.89880   0.26538   0.00000  Uiso   1.00
H1370  H     0.78075   0.87994   0.28651   0.00000  Uiso   1.00
H1371  H     0.75964   0.89169   0.19628   0.00000  Uiso   1.00
H1372  H     0.79684   0.91041   0.17555   0.00000  Uiso   1.00
C2157  C     0.63347   0.51437   0.75672   0.00000  Uiso   1.00
C2158  C     0.65168   0.53209   0.74289   0.00000  Uiso   1.00
C2159  C     0.66277   0.55378   0.75525   0.00000  Uiso   1.00
C2160  C     0.65766   0.56172   0.78345   0.00000  Uiso   1.00
C2161  C     0.63948   0.54436   0.79716   0.00000  Uiso   1.00
C2162  C     0.62839   0.52263   0.78502   0.00000  Uiso   1.00
H1373  H     0.65788   0.52863   0.72043   0.00000  Uiso   1.00
H1374  H     0.67678   0.56569   0.74159   0.00000  Uiso   1.00
H1375  H     0.63348   0.54823   0.81961   0.00000  Uiso   1.00
H1376  H     0.61447   0.51100   0.79894   0.00000  Uiso   1.00
C2163  C     0.63742   0.58956   0.77055   0.00000  Uiso   1.00
C2164  C     0.65814   0.59839   0.78288   0.00000  Uiso   1.00
C2165  C     0.66701   0.62048   0.78113   0.00000  Uiso   1.00
C2166  C     0.65659   0.63209   0.76888   0.00000  Uiso   1.00
C2167  C     0.63589   0.62325   0.75656   0.00000  Uiso   1.00
C2168  C     0.62704   0.60120   0.75821   0.00000  Uiso   1.00
C2169  C     0.66974   0.58575   0.79689   0.00000  Uiso   1.00
C2170  C     0.69397   0.59775   0.78409   0.00000  Uiso   1.00
C2171  C     0.71217   0.60074   0.80121   0.00000  Uiso   1.00
C2172  C     0.73398   0.61153   0.78921   0.00000  Uiso   1.00
C2173  C     0.74148   0.62131   0.75779   0.00000  Uiso   1.00
C2174  C     0.72294   0.61808   0.74069   0.00000  Uiso   1.00
C2175  C     0.70118   0.60727   0.75284   0.00000  Uiso   1.00
C2176  C     0.66616   0.59941   0.85742   0.00000  Uiso   1.00
C2177  C     0.66582   0.59937   0.89372   0.00000  Uiso   1.00
C2178  C     0.66834   0.58539   0.91476   0.00000  Uiso   1.00
C2179  C     0.67115   0.57138   0.89431   0.00000  Uiso   1.00
C2180  C     0.67156   0.57147   0.85804   0.00000  Uiso   1.00
C2181  C     0.66910   0.58550   0.83698   0.00000  Uiso   1.00
C2182  C     0.66839   0.58562   0.95487   0.00000  Uiso   1.00
C2183  C     0.63192   0.51407   0.99482   0.00000  Uiso   1.00
C2184  C     0.65083   0.53144   0.00763   0.00000  Uiso   1.00
C2185  C     0.66193   0.55320   0.99541   0.00000  Uiso   1.00
C2186  C     0.65621   0.56155   0.96831   0.00000  Uiso   1.00
C2187  C     0.63748   0.54449   0.95541   0.00000  Uiso   1.00
C2188  C     0.62627   0.52272   0.96755   0.00000  Uiso   1.00
C2189  C     0.65656   0.59824   0.96781   0.00000  Uiso   1.00
C2190  C     0.66565   0.62032   0.97032   0.00000  Uiso   1.00
C2191  C     0.65505   0.63199   0.98129   0.00000  Uiso   1.00
C2192  C     0.63388   0.62321   0.99137   0.00000  Uiso   1.00
C2193  C     0.62481   0.60117   0.98900   0.00000  Uiso   1.00
C2194  C     0.63540   0.58948   0.97803   0.00000  Uiso   1.00
C2195  C     0.69945   0.60636   0.99993   0.00000  Uiso   1.00
C2196  C     0.72117   0.61716   0.01230   0.00000  Uiso   1.00
C2197  C     0.73990   0.62124   0.99496   0.00000  Uiso   1.00
C2198  C     0.73264   0.61236   0.96300   0.00000  Uiso   1.00
C2199  C     0.71088   0.60155   0.95080   0.00000  Uiso   1.00
C2200  C     0.69248   0.59766   0.96820   0.00000  Uiso   1.00
H1377  H     0.62847   0.57213   0.77043   0.00000  Uiso   1.00
H1378  H     0.68345   0.62953   0.79008   0.00000  Uiso   1.00
H1379  H     0.66569   0.64953   0.76917   0.00000  Uiso   1.00
H1380  H     0.61061   0.59197   0.74925   0.00000  Uiso   1.00
H1381  H     0.70903   0.59403   0.82640   0.00000  Uiso   1.00
H1382  H     0.74634   0.61247   0.80593   0.00000  Uiso   1.00
H1383  H     0.72573   0.62466   0.71556   0.00000  Uiso   1.00
H1384  H     0.68851   0.60615   0.73643   0.00000  Uiso   1.00
H1385  H     0.66395   0.61143   0.84419   0.00000  Uiso   1.00
H1386  H     0.66342   0.61138   0.90646   0.00000  Uiso   1.00
H1387  H     0.67331   0.55937   0.90768   0.00000  Uiso   1.00
H1388  H     0.67400   0.55950   0.84523   0.00000  Uiso   1.00
H1389  H     0.65756   0.52763   0.02915   0.00000  Uiso   1.00
H1390  H     0.67651   0.56479   0.00824   0.00000  Uiso   1.00
H1391  H     0.63104   0.54866   0.93373   0.00000  Uiso   1.00
H1392  H     0.61181   0.51139   0.95445   0.00000  Uiso   1.00
H1393  H     0.68244   0.62932   0.96300   0.00000  Uiso   1.00
H1394  H     0.66437   0.64941   0.98182   0.00000  Uiso   1.00
H1395  H     0.60800   0.59200   0.99620   0.00000  Uiso   1.00
H1396  H     0.62619   0.57207   0.97737   0.00000  Uiso   1.00
H1397  H     0.68661   0.60452   0.01657   0.00000  Uiso   1.00
H1398  H     0.72377   0.62300   0.03783   0.00000  Uiso   1.00
H1399  H     0.74516   0.61405   0.94599   0.00000  Uiso   1.00
H1400  H     0.70796   0.59560   0.92519   0.00000  Uiso   1.00
C2201  C     0.88380   0.51405   0.75686   0.00000  Uiso   1.00
C2202  C     0.90184   0.53182   0.74276   0.00000  Uiso   1.00
C2203  C     0.91289   0.55354   0.75504   0.00000  Uiso   1.00
C2204  C     0.90790   0.56143   0.78339   0.00000  Uiso   1.00
C2205  C     0.88998   0.54401   0.79750   0.00000  Uiso   1.00
C2206  C     0.87893   0.52224   0.78546   0.00000  Uiso   1.00
H1401  H     0.90787   0.52840   0.72008   0.00000  Uiso   1.00
H1402  H     0.92671   0.56550   0.74108   0.00000  Uiso   1.00
H1403  H     0.88410   0.54782   0.82014   0.00000  Uiso   1.00
H1404  H     0.86520   0.51055   0.79966   0.00000  Uiso   1.00
C2207  C     0.88687   0.58849   0.77073   0.00000  Uiso   1.00
C2208  C     0.90786   0.59771   0.78249   0.00000  Uiso   1.00
C2209  C     0.91627   0.61980   0.77984   0.00000  Uiso   1.00
C2210  C     0.90546   0.63089   0.76777   0.00000  Uiso   1.00
C2211  C     0.88420   0.62177   0.75611   0.00000  Uiso   1.00
C2212  C     0.87598   0.59948   0.75854   0.00000  Uiso   1.00
C2213  C     0.91980   0.58557   0.79658   0.00000  Uiso   1.00
C2214  C     0.94405   0.59775   0.78373   0.00000  Uiso   1.00
C2215  C     0.96229   0.60102   0.80102   0.00000  Uiso   1.00
C2216  C     0.98411   0.61188   0.78904   0.00000  Uiso   1.00
C2217  C     0.99156   0.62142   0.75746   0.00000  Uiso   1.00
C2218  C     0.97298   0.61793   0.74023   0.00000  Uiso   1.00
C2219  C     0.95120   0.60708   0.75238   0.00000  Uiso   1.00
C2220  C     0.91640   0.59947   0.85710   0.00000  Uiso   1.00
C2221  C     0.91603   0.59946   0.89341   0.00000  Uiso   1.00
C2222  C     0.91844   0.58543   0.91447   0.00000  Uiso   1.00
C2223  C     0.92125   0.57140   0.89409   0.00000  Uiso   1.00
C2224  C     0.92170   0.57146   0.85781   0.00000  Uiso   1.00
C2225  C     0.91924   0.58547   0.83673   0.00000  Uiso   1.00
C2226  C     0.91845   0.58552   0.95464   0.00000  Uiso   1.00
C2227  C     0.88240   0.51386   0.99421   0.00000  Uiso   1.00
C2228  C     0.90136   0.53122   0.00690   0.00000  Uiso   1.00
C2229  C     0.91240   0.55299   0.99473   0.00000  Uiso   1.00
C2230  C     0.90655   0.56134   0.96779   0.00000  Uiso   1.00
C2231  C     0.88791   0.54425   0.95478   0.00000  Uiso   1.00
C2232  C     0.87677   0.52246   0.96686   0.00000  Uiso   1.00
C2233  C     0.90629   0.59755   0.96808   0.00000  Uiso   1.00
C2234  C     0.91461   0.61963   0.97048   0.00000  Uiso   1.00
C2235  C     0.90372   0.63066   0.98228   0.00000  Uiso   1.00
C2236  C     0.88244   0.62149   0.99387   0.00000  Uiso   1.00
C2237  C     0.87425   0.59921   0.99144   0.00000  Uiso   1.00
C2238  C     0.88524   0.58828   0.97957   0.00000  Uiso   1.00
C2239  C     0.94957   0.60675   0.99950   0.00000  Uiso   1.00
C2240  C     0.97129   0.61761   0.01187   0.00000  Uiso   1.00
C2241  C     0.98999   0.62144   0.99471   0.00000  Uiso   1.00
C2242  C     0.98274   0.61234   0.96288   0.00000  Uiso   1.00
C2243  C     0.96097   0.60148   0.95067   0.00000  Uiso   1.00
C2244  C     0.94259   0.59777   0.96794   0.00000  Uiso   1.00
H1405  H     0.87814   0.57101   0.77120   0.00000  Uiso   1.00
H1406  H     0.93287   0.62926   0.78815   0.00000  Uiso   1.00
H1407  H     0.91441   0.64828   0.76753   0.00000  Uiso   1.00
H1408  H     0.85949   0.58976   0.75034   0.00000  Uiso   1.00
H1409  H     0.95919   0.59448   0.82633   0.00000  Uiso   1.00
H1410  H     0.99650   0.61305   0.80589   0.00000  Uiso   1.00
H1411  H     0.97573   0.62431   0.71497   0.00000  Uiso   1.00
H1412  H     0.93851   0.60574   0.73582   0.00000  Uiso   1.00
H1413  H     0.91426   0.61151   0.84380   0.00000  Uiso   1.00
H1414  H     0.91368   0.61151   0.90609   0.00000  Uiso   1.00
H1415  H     0.92336   0.55937   0.90750   0.00000  Uiso   1.00
H1416  H     0.92411   0.55945   0.84506   0.00000  Uiso   1.00
H1417  H     0.90813   0.52742   0.02838   0.00000  Uiso   1.00
H1418  H     0.92696   0.56463   0.00756   0.00000  Uiso   1.00
H1419  H     0.88141   0.54842   0.93316   0.00000  Uiso   1.00
H1420  H     0.86231   0.51111   0.95377   0.00000  Uiso   1.00
H1421  H     0.93125   0.62913   0.96232   0.00000  Uiso   1.00
H1422  H     0.91264   0.64805   0.98248   0.00000  Uiso   1.00
H1423  H     0.85774   0.58946   0.99953   0.00000  Uiso   1.00
H1424  H     0.87653   0.57080   0.97929   0.00000  Uiso   1.00
H1425  H     0.93674   0.60506   0.01603   0.00000  Uiso   1.00
H1426  H     0.97391   0.62368   0.03727   0.00000  Uiso   1.00
H1427  H     0.99523   0.61384   0.94600   0.00000  Uiso   1.00
H1428  H     0.95803   0.59530   0.92520   0.00000  Uiso   1.00
C2245  C     0.87054   0.74073   0.50728   0.00000  Uiso   1.00
C2246  C     0.85136   0.72345   0.49505   0.00000  Uiso   1.00
C2247  C     0.84042   0.70165   0.50717   0.00000  Uiso   1.00
C2248  C     0.84660   0.69322   0.53358   0.00000  Uiso   1.00
C2249  C     0.86541   0.71027   0.54626   0.00000  Uiso   1.00
C2250  C     0.87645   0.73208   0.53423   0.00000  Uiso   1.00
H1429  H     0.84434   0.72731   0.47397   0.00000  Uiso   1.00
H1430  H     0.82568   0.69008   0.49469   0.00000  Uiso   1.00
H1431  H     0.87214   0.70605   0.56749   0.00000  Uiso   1.00
H1432  H     0.89109   0.74337   0.54697   0.00000  Uiso   1.00
C2251  C     0.86784   0.66634   0.52030   0.00000  Uiso   1.00
C2252  C     0.84698   0.65705   0.53265   0.00000  Uiso   1.00
C2253  C     0.83875   0.63497   0.53063   0.00000  Uiso   1.00
C2254  C     0.84963   0.62395   0.51869   0.00000  Uiso   1.00
C2255  C     0.87077   0.63315   0.50645   0.00000  Uiso   1.00
C2256  C     0.87880   0.65543   0.50826   0.00000  Uiso   1.00
C2257  C     0.83490   0.66903   0.54666   0.00000  Uiso   1.00
C2258  C     0.81063   0.65667   0.53396   0.00000  Uiso   1.00
C2259  C     0.79226   0.65233   0.55184   0.00000  Uiso   1.00
C2260  C     0.77042   0.64137   0.53996   0.00000  Uiso   1.00
C2261  C     0.76307   0.63280   0.50786   0.00000  Uiso   1.00
C2262  C     0.78176   0.63720   0.49012   0.00000  Uiso   1.00
C2263  C     0.80355   0.64813   0.50219   0.00000  Uiso   1.00
C2264  C     0.83883   0.65555   0.60745   0.00000  Uiso   1.00
C2265  C     0.83917   0.65566   0.64376   0.00000  Uiso   1.00
C2266  C     0.83621   0.66939   0.66456   0.00000  Uiso   1.00
C2267  C     0.83300   0.68311   0.64392   0.00000  Uiso   1.00
C2268  C     0.83265   0.68299   0.60763   0.00000  Uiso   1.00
C2269  C     0.83551   0.66918   0.58682   0.00000  Uiso   1.00
C2270  C     0.83618   0.66930   0.70473   0.00000  Uiso   1.00
C2271  C     0.87198   0.74092   0.74401   0.00000  Uiso   1.00
C2272  C     0.85373   0.72324   0.75784   0.00000  Uiso   1.00
C2273  C     0.84276   0.70148   0.74575   0.00000  Uiso   1.00
C2274  C     0.84800   0.69346   0.71780   0.00000  Uiso   1.00
C2275  C     0.86601   0.71084   0.70379   0.00000  Uiso   1.00
C2276  C     0.87702   0.73264   0.71570   0.00000  Uiso   1.00
C2277  C     0.84846   0.65734   0.71812   0.00000  Uiso   1.00
C2278  C     0.84030   0.63526   0.72007   0.00000  Uiso   1.00
C2279  C     0.85131   0.62426   0.73164   0.00000  Uiso   1.00
C2280  C     0.87252   0.63347   0.74356   0.00000  Uiso   1.00
C2281  C     0.88056   0.65574   0.74150   0.00000  Uiso   1.00
C2282  C     0.86948   0.66665   0.72979   0.00000  Uiso   1.00
C2283  C     0.80504   0.64733   0.74931   0.00000  Uiso   1.00
C2284  C     0.78332   0.63629   0.76166   0.00000  Uiso   1.00
C2285  C     0.76465   0.63294   0.74485   0.00000  Uiso   1.00
C2286  C     0.77194   0.64270   0.71336   0.00000  Uiso   1.00
C2287  C     0.79370   0.65369   0.70114   0.00000  Uiso   1.00
C2288  C     0.81204   0.65692   0.71807   0.00000  Uiso   1.00
H1433  H     0.87643   0.68382   0.52015   0.00000  Uiso   1.00
H1434  H     0.82226   0.62546   0.53940   0.00000  Uiso   1.00
H1435  H     0.84083   0.60656   0.51903   0.00000  Uiso   1.00
H1436  H     0.89517   0.66519   0.49954   0.00000  Uiso   1.00
H1437  H     0.79527   0.65808   0.57757   0.00000  Uiso   1.00
H1438  H     0.75793   0.63934   0.55729   0.00000  Uiso   1.00
H1439  H     0.77909   0.63161   0.46444   0.00000  Uiso   1.00
H1440  H     0.81636   0.65030   0.48520   0.00000  Uiso   1.00
H1441  H     0.84139   0.64374   0.59440   0.00000  Uiso   1.00
H1442  H     0.84195   0.64390   0.65666   0.00000  Uiso   1.00
H1443  H     0.83047   0.69493   0.65706   0.00000  Uiso   1.00
H1444  H     0.82990   0.69473   0.59459   0.00000  Uiso   1.00
H1445  H     0.84750   0.72675   0.78020   0.00000  Uiso   1.00
H1446  H     0.82879   0.68957   0.75950   0.00000  Uiso   1.00
H1447  H     0.87203   0.70694   0.68140   0.00000  Uiso   1.00
H1448  H     0.89090   0.74426   0.70169   0.00000  Uiso   1.00
H1449  H     0.82372   0.62574   0.71167   0.00000  Uiso   1.00
H1450  H     0.84251   0.60687   0.73144   0.00000  Uiso   1.00
H1451  H     0.89702   0.66552   0.74983   0.00000  Uiso   1.00
H1452  H     0.87804   0.68413   0.72976   0.00000  Uiso   1.00
H1453  H     0.81784   0.64860   0.76555   0.00000  Uiso   1.00
H1454  H     0.78067   0.62970   0.78678   0.00000  Uiso   1.00
H1455  H     0.75948   0.64164   0.69677   0.00000  Uiso   1.00
H1456  H     0.79665   0.66039   0.67595   0.00000  Uiso   1.00
C2289  C     0.63552   0.76387   0.75973   0.00000  Uiso   1.00
C2290  C     0.65361   0.78095   0.74586   0.00000  Uiso   1.00
C2291  C     0.66423   0.80307   0.75714   0.00000  Uiso   1.00
C2292  C     0.65825   0.81117   0.78393   0.00000  Uiso   1.00
C2293  C     0.64006   0.79407   0.79768   0.00000  Uiso   1.00
C2294  C     0.62948   0.77196   0.78642   0.00000  Uiso   1.00
H1457  H     0.66029   0.77703   0.72436   0.00000  Uiso   1.00
H1458  H     0.67843   0.81485   0.74382   0.00000  Uiso   1.00
H1459  H     0.63355   0.79820   0.81917   0.00000  Uiso   1.00
H1460  H     0.61532   0.76027   0.79997   0.00000  Uiso   1.00
C2295  C     0.63701   0.83823   0.76988   0.00000  Uiso   1.00
C2296  C     0.65786   0.84749   0.78229   0.00000  Uiso   1.00
C2297  C     0.66614   0.86958   0.78000   0.00000  Uiso   1.00
C2298  C     0.65531   0.88064   0.76786   0.00000  Uiso   1.00
C2299  C     0.63416   0.87148   0.75570   0.00000  Uiso   1.00
C2300  C     0.62611   0.84919   0.75761   0.00000  Uiso   1.00
C2301  C     0.66991   0.83556   0.79663   0.00000  Uiso   1.00
C2302  C     0.69411   0.84779   0.78379   0.00000  Uiso   1.00
C2303  C     0.71243   0.85137   0.80120   0.00000  Uiso   1.00
C2304  C     0.73423   0.86222   0.78915   0.00000  Uiso   1.00
C2305  C     0.74161   0.87149   0.75740   0.00000  Uiso   1.00
C2306  C     0.72297   0.86774   0.74006   0.00000  Uiso   1.00
C2307  C     0.70121   0.85687   0.75226   0.00000  Uiso   1.00
C2308  C     0.66607   0.84924   0.85718   0.00000  Uiso   1.00
C2309  C     0.66565   0.84913   0.89347   0.00000  Uiso   1.00
C2310  C     0.66844   0.83532   0.91450   0.00000  Uiso   1.00
C2311  C     0.67175   0.82164   0.89403   0.00000  Uiso   1.00
C2312  C     0.67220   0.82177   0.85776   0.00000  Uiso   1.00
C2313  C     0.66934   0.83555   0.83672   0.00000  Uiso   1.00
C2314  C     0.66823   0.83514   0.95460   0.00000  Uiso   1.00
C2315  C     0.63148   0.76327   0.99110   0.00000  Uiso   1.00
C2316  C     0.64924   0.78005   0.00613   0.00000  Uiso   1.00
C2317  C     0.66069   0.80223   0.99494   0.00000  Uiso   1.00
C2318  C     0.65594   0.81067   0.96713   0.00000  Uiso   1.00
C2319  C     0.63810   0.79386   0.95217   0.00000  Uiso   1.00
C2320  C     0.62670   0.77169   0.96332   0.00000  Uiso   1.00
C2321  C     0.65610   0.84716   0.96809   0.00000  Uiso   1.00
C2322  C     0.66451   0.86923   0.97091   0.00000  Uiso   1.00
C2323  C     0.65361   0.88026   0.98269   0.00000  Uiso   1.00
C2324  C     0.63224   0.87110   0.99383   0.00000  Uiso   1.00
C2325  C     0.62396   0.84882   0.99098   0.00000  Uiso   1.00
C2326  C     0.63494   0.83789   0.97911   0.00000  Uiso   1.00
C2327  C     0.69918   0.85594   0.99989   0.00000  Uiso   1.00
C2328  C     0.72089   0.86681   0.01232   0.00000  Uiso   1.00
C2329  C     0.73964   0.87083   0.99512   0.00000  Uiso   1.00
C2330  C     0.73243   0.86178   0.96326   0.00000  Uiso   1.00
C2331  C     0.71069   0.85091   0.95098   0.00000  Uiso   1.00
C2332  C     0.69226   0.84714   0.96820   0.00000  Uiso   1.00
H1461  H     0.62840   0.82076   0.76993   0.00000  Uiso   1.00
H1462  H     0.68263   0.87906   0.78877   0.00000  Uiso   1.00
H1463  H     0.66415   0.89803   0.76803   0.00000  Uiso   1.00
H1464  H     0.60973   0.83945   0.74891   0.00000  Uiso   1.00
H1465  H     0.70939   0.84507   0.82664   0.00000  Uiso   1.00
H1466  H     0.74667   0.86363   0.80612   0.00000  Uiso   1.00
H1467  H     0.72566   0.87388   0.71466   0.00000  Uiso   1.00
H1468  H     0.68845   0.85527   0.73561   0.00000  Uiso   1.00
H1469  H     0.66355   0.86106   0.84393   0.00000  Uiso   1.00
H1470  H     0.66287   0.86090   0.90623   0.00000  Uiso   1.00
H1471  H     0.67419   0.80979   0.90736   0.00000  Uiso   1.00
H1472  H     0.67495   0.81000   0.84493   0.00000  Uiso   1.00
H1473  H     0.65492   0.77583   0.02857   0.00000  Uiso   1.00
H1474  H     0.67446   0.81375   0.00931   0.00000  Uiso   1.00
H1475  H     0.63254   0.79829   0.92980   0.00000  Uiso   1.00
H1476  H     0.61295   0.76028   0.94876   0.00000  Uiso   1.00
H1477  H     0.68121   0.87871   0.96310   0.00000  Uiso   1.00
H1478  H     0.66261   0.89765   0.98324   0.00000  Uiso   1.00
H1479  H     0.60736   0.83908   0.99868   0.00000  Uiso   1.00
H1480  H     0.62618   0.82043   0.97838   0.00000  Uiso   1.00
H1481  H     0.68633   0.85419   0.01640   0.00000  Uiso   1.00
H1482  H     0.72346   0.87277   0.03778   0.00000  Uiso   1.00
H1483  H     0.74496   0.86338   0.94636   0.00000  Uiso   1.00
H1484  H     0.70782   0.84487   0.92543   0.00000  Uiso   1.00
C2333  C     0.62048   0.99052   0.50701   0.00000  Uiso   1.00
C2334  C     0.60130   0.97323   0.49476   0.00000  Uiso   1.00
C2335  C     0.59035   0.95143   0.50685   0.00000  Uiso   1.00
C2336  C     0.59653   0.94299   0.53326   0.00000  Uiso   1.00
C2337  C     0.61535   0.96003   0.54593   0.00000  Uiso   1.00
C2338  C     0.62640   0.98184   0.53392   0.00000  Uiso   1.00
H1485  H     0.59429   0.97711   0.47369   0.00000  Uiso   1.00
H1486  H     0.57561   0.93986   0.49437   0.00000  Uiso   1.00
H1487  H     0.62208   0.95580   0.56715   0.00000  Uiso   1.00
H1488  H     0.64104   0.99312   0.54666   0.00000  Uiso   1.00
C2339  C     0.61772   0.91604   0.52010   0.00000  Uiso   1.00
C2340  C     0.59686   0.90678   0.53241   0.00000  Uiso   1.00
C2341  C     0.58859   0.88470   0.53042   0.00000  Uiso   1.00
C2342  C     0.59944   0.87364   0.51856   0.00000  Uiso   1.00
C2343  C     0.62058   0.88279   0.50636   0.00000  Uiso   1.00
C2344  C     0.62865   0.90507   0.50813   0.00000  Uiso   1.00
C2345  C     0.58482   0.91881   0.54640   0.00000  Uiso   1.00
C2346  C     0.56052   0.90643   0.53380   0.00000  Uiso   1.00
C2347  C     0.54217   0.90210   0.55173   0.00000  Uiso   1.00
C2348  C     0.52031   0.89107   0.53994   0.00000  Uiso   1.00
C2349  C     0.51292   0.88241   0.50791   0.00000  Uiso   1.00
C2350  C     0.53159   0.88681   0.49011   0.00000  Uiso   1.00
C2351  C     0.55341   0.89781   0.50208   0.00000  Uiso   1.00
C2352  C     0.58888   0.90543   0.60718   0.00000  Uiso   1.00
C2353  C     0.58931   0.90560   0.64348   0.00000  Uiso   1.00
C2354  C     0.58641   0.91937   0.66429   0.00000  Uiso   1.00
C2355  C     0.58319   0.93308   0.64364   0.00000  Uiso   1.00
C2356  C     0.58273   0.93289   0.60736   0.00000  Uiso   1.00
C2357  C     0.58552   0.91903   0.58655   0.00000  Uiso   1.00
C2358  C     0.58638   0.91928   0.70445   0.00000  Uiso   1.00
C2359  C     0.62212   0.99087   0.74388   0.00000  Uiso   1.00
C2360  C     0.60387   0.97317   0.75766   0.00000  Uiso   1.00
C2361  C     0.59293   0.95142   0.74552   0.00000  Uiso   1.00
C2362  C     0.59821   0.94343   0.71758   0.00000  Uiso   1.00
C2363  C     0.61625   0.96082   0.70366   0.00000  Uiso   1.00
C2364  C     0.62723   0.98261   0.71561   0.00000  Uiso   1.00
C2365  C     0.59857   0.90723   0.71784   0.00000  Uiso   1.00
C2366  C     0.59036   0.88514   0.71968   0.00000  Uiso   1.00
C2367  C     0.60131   0.87406   0.73119   0.00000  Uiso   1.00
C2368  C     0.62250   0.88320   0.74319   0.00000  Uiso   1.00
C2369  C     0.63058   0.90549   0.74129   0.00000  Uiso   1.00
C2370  C     0.61956   0.91647   0.72962   0.00000  Uiso   1.00
C2371  C     0.55518   0.89740   0.74896   0.00000  Uiso   1.00
C2372  C     0.53344   0.88642   0.76126   0.00000  Uiso   1.00
C2373  C     0.51480   0.88308   0.74437   0.00000  Uiso   1.00
C2374  C     0.52214   0.89278   0.71285   0.00000  Uiso   1.00
C2375  C     0.54391   0.90372   0.70069   0.00000  Uiso   1.00
C2376  C     0.56222   0.90695   0.71771   0.00000  Uiso   1.00
H1489  H     0.62635   0.93351   0.51993   0.00000  Uiso   1.00
H1490  H     0.57209   0.87522   0.53918   0.00000  Uiso   1.00
H1491  H     0.59062   0.85624   0.51891   0.00000  Uiso   1.00
H1492  H     0.64504   0.91481   0.49944   0.00000  Uiso   1.00
H1493  H     0.54522   0.90791   0.57742   0.00000  Uiso   1.00
H1494  H     0.50784   0.88906   0.55730   0.00000  Uiso   1.00
H1495  H     0.52890   0.88115   0.46447   0.00000  Uiso   1.00
H1496  H     0.56619   0.89996   0.48506   0.00000  Uiso   1.00
H1497  H     0.59139   0.89358   0.59413   0.00000  Uiso   1.00
H1498  H     0.59209   0.89384   0.65639   0.00000  Uiso   1.00
H1499  H     0.58072   0.94493   0.65678   0.00000  Uiso   1.00
H1500  H     0.57997   0.94463   0.59431   0.00000  Uiso   1.00
H1501  H     0.59759   0.97666   0.77999   0.00000  Uiso   1.00
H1502  H     0.57894   0.93949   0.75922   0.00000  Uiso   1.00
H1503  H     0.62231   0.95694   0.68129   0.00000  Uiso   1.00
H1504  H     0.64112   0.99425   0.70165   0.00000  Uiso   1.00
H1505  H     0.57380   0.87567   0.71120   0.00000  Uiso   1.00
H1506  H     0.59249   0.85667   0.73088   0.00000  Uiso   1.00
H1507  H     0.64702   0.91522   0.74971   0.00000  Uiso   1.00
H1508  H     0.62816   0.93395   0.72970   0.00000  Uiso   1.00
H1509  H     0.56795   0.89866   0.76527   0.00000  Uiso   1.00
H1510  H     0.53076   0.87986   0.78640   0.00000  Uiso   1.00
H1511  H     0.50969   0.89172   0.69621   0.00000  Uiso   1.00
H1512  H     0.54689   0.91038   0.67548   0.00000  Uiso   1.00
C2377  C     0.88375   0.76406   0.75694   0.00000  Uiso   1.00
C2378  C     0.90179   0.78182   0.74283   0.00000  Uiso   1.00
C2379  C     0.91287   0.80353   0.75510   0.00000  Uiso   1.00
C2380  C     0.90790   0.81144   0.78346   0.00000  Uiso   1.00
C2381  C     0.88999   0.79403   0.79760   0.00000  Uiso   1.00
C2382  C     0.87891   0.77226   0.78556   0.00000  Uiso   1.00
H1513  H     0.90780   0.77839   0.72013   0.00000  Uiso   1.00
H1514  H     0.92669   0.81549   0.74113   0.00000  Uiso   1.00
H1515  H     0.88412   0.79785   0.82025   0.00000  Uiso   1.00
H1516  H     0.86519   0.76058   0.79978   0.00000  Uiso   1.00
C2383  C     0.88690   0.83851   0.77077   0.00000  Uiso   1.00
C2384  C     0.90789   0.84773   0.78253   0.00000  Uiso   1.00
C2385  C     0.91631   0.86982   0.77985   0.00000  Uiso   1.00
C2386  C     0.90552   0.88092   0.76775   0.00000  Uiso   1.00
C2387  C     0.88425   0.87180   0.75609   0.00000  Uiso   1.00
C2388  C     0.87602   0.84951   0.75855   0.00000  Uiso   1.00
C2389  C     0.91982   0.83558   0.79663   0.00000  Uiso   1.00
C2390  C     0.94407   0.84774   0.78379   0.00000  Uiso   1.00
C2391  C     0.96231   0.85101   0.80108   0.00000  Uiso   1.00
C2392  C     0.98413   0.86186   0.78910   0.00000  Uiso   1.00
C2393  C     0.99158   0.87140   0.75752   0.00000  Uiso   1.00
C2394  C     0.97300   0.86791   0.74028   0.00000  Uiso   1.00
C2395  C     0.95122   0.85706   0.75242   0.00000  Uiso   1.00
C2396  C     0.91640   0.84949   0.85714   0.00000  Uiso   1.00
C2397  C     0.91602   0.84947   0.89345   0.00000  Uiso   1.00
C2398  C     0.91843   0.83545   0.91452   0.00000  Uiso   1.00
C2399  C     0.92126   0.82143   0.89416   0.00000  Uiso   1.00
C2400  C     0.92172   0.82149   0.85788   0.00000  Uiso   1.00
C2401  C     0.91925   0.83549   0.83679   0.00000  Uiso   1.00
C2402  C     0.91843   0.83555   0.95470   0.00000  Uiso   1.00
C2403  C     0.88237   0.76389   0.99425   0.00000  Uiso   1.00
C2404  C     0.90132   0.78124   0.00695   0.00000  Uiso   1.00
C2405  C     0.91237   0.80302   0.99478   0.00000  Uiso   1.00
C2406  C     0.90653   0.81137   0.96783   0.00000  Uiso   1.00
C2407  C     0.88789   0.79428   0.95481   0.00000  Uiso   1.00
C2408  C     0.87674   0.77249   0.96689   0.00000  Uiso   1.00
C2409  C     0.90623   0.84756   0.96810   0.00000  Uiso   1.00
C2410  C     0.91453   0.86963   0.97047   0.00000  Uiso   1.00
C2411  C     0.90360   0.88064   0.98221   0.00000  Uiso   1.00
C2412  C     0.88231   0.87144   0.99376   0.00000  Uiso   1.00
C2413  C     0.87416   0.84917   0.99138   0.00000  Uiso   1.00
C2414  C     0.88518   0.83826   0.97958   0.00000  Uiso   1.00
C2415  C     0.94954   0.85680   0.99956   0.00000  Uiso   1.00
C2416  C     0.97127   0.86767   0.01193   0.00000  Uiso   1.00
C2417  C     0.98997   0.87150   0.99477   0.00000  Uiso   1.00
C2418  C     0.98271   0.86240   0.96294   0.00000  Uiso   1.00
C2419  C     0.96095   0.85154   0.95073   0.00000  Uiso   1.00
C2420  C     0.94257   0.84782   0.96800   0.00000  Uiso   1.00
H1517  H     0.87816   0.82104   0.77126   0.00000  Uiso   1.00
H1518  H     0.93292   0.87927   0.78816   0.00000  Uiso   1.00
H1519  H     0.91448   0.89831   0.76749   0.00000  Uiso   1.00
H1520  H     0.85953   0.83980   0.75035   0.00000  Uiso   1.00
H1521  H     0.95921   0.84448   0.82639   0.00000  Uiso   1.00
H1522  H     0.99652   0.86303   0.80596   0.00000  Uiso   1.00
H1523  H     0.97575   0.87427   0.71501   0.00000  Uiso   1.00
H1524  H     0.93853   0.85572   0.73586   0.00000  Uiso   1.00
H1525  H     0.91425   0.86151   0.84383   0.00000  Uiso   1.00
H1526  H     0.91365   0.86153   0.90612   0.00000  Uiso   1.00
H1527  H     0.92337   0.80940   0.90758   0.00000  Uiso   1.00
H1528  H     0.92414   0.80948   0.84513   0.00000  Uiso   1.00
H1529  H     0.90809   0.77744   0.02844   0.00000  Uiso   1.00
H1530  H     0.92692   0.81465   0.00762   0.00000  Uiso   1.00
H1531  H     0.88140   0.79845   0.93319   0.00000  Uiso   1.00
H1532  H     0.86229   0.76114   0.95379   0.00000  Uiso   1.00
H1533  H     0.93116   0.87915   0.96233   0.00000  Uiso   1.00
H1534  H     0.91250   0.89803   0.98239   0.00000  Uiso   1.00
H1535  H     0.85764   0.83940   0.99946   0.00000  Uiso   1.00
H1536  H     0.87649   0.82079   0.97931   0.00000  Uiso   1.00
H1537  H     0.93671   0.85511   0.01609   0.00000  Uiso   1.00
H1538  H     0.97389   0.87374   0.03733   0.00000  Uiso   1.00
H1539  H     0.99521   0.86390   0.94606   0.00000  Uiso   1.00
H1540  H     0.95801   0.84535   0.92526   0.00000  Uiso   1.00
C2421  C     0.87045   0.99066   0.50711   0.00000  Uiso   1.00
C2422  C     0.85127   0.97339   0.49484   0.00000  Uiso   1.00
C2423  C     0.84028   0.95160   0.50694   0.00000  Uiso   1.00
C2424  C     0.84642   0.94315   0.53338   0.00000  Uiso   1.00
C2425  C     0.86523   0.96018   0.54609   0.00000  Uiso   1.00
C2426  C     0.87631   0.98199   0.53408   0.00000  Uiso   1.00
H1541  H     0.84428   0.97728   0.47374   0.00000  Uiso   1.00
H1542  H     0.82555   0.94003   0.49444   0.00000  Uiso   1.00
H1543  H     0.87194   0.95594   0.56735   0.00000  Uiso   1.00
H1544  H     0.89094   0.99326   0.54685   0.00000  Uiso   1.00
C2427  C     0.86765   0.91628   0.52008   0.00000  Uiso   1.00
C2428  C     0.84679   0.90697   0.53243   0.00000  Uiso   1.00
C2429  C     0.83857   0.88489   0.53040   0.00000  Uiso   1.00
C2430  C     0.84946   0.87388   0.51849   0.00000  Uiso   1.00
C2431  C     0.87061   0.88309   0.50628   0.00000  Uiso   1.00
C2432  C     0.87862   0.90536   0.50805   0.00000  Uiso   1.00
C2433  C     0.83472   0.91896   0.54647   0.00000  Uiso   1.00
C2434  C     0.81043   0.90656   0.53387   0.00000  Uiso   1.00
C2435  C     0.79207   0.90222   0.55181   0.00000  Uiso   1.00
C2436  C     0.77021   0.89117   0.54001   0.00000  Uiso   1.00
C2437  C     0.76283   0.88251   0.50798   0.00000  Uiso   1.00
C2438  C     0.78151   0.88693   0.49018   0.00000  Uiso   1.00
C2439  C     0.80332   0.89796   0.50215   0.00000  Uiso   1.00
C2440  C     0.83879   0.90554   0.60724   0.00000  Uiso   1.00
C2441  C     0.83925   0.90571   0.64354   0.00000  Uiso   1.00
C2442  C     0.83636   0.91949   0.66436   0.00000  Uiso   1.00
C2443  C     0.83311   0.93319   0.64373   0.00000  Uiso   1.00
C2444  C     0.83263   0.93300   0.60745   0.00000  Uiso   1.00
C2445  C     0.83543   0.91915   0.58663   0.00000  Uiso   1.00
C2446  C     0.83635   0.91941   0.70453   0.00000  Uiso   1.00
C2447  C     0.87213   0.99101   0.74391   0.00000  Uiso   1.00
C2448  C     0.85388   0.97332   0.75770   0.00000  Uiso   1.00
C2449  C     0.84292   0.95156   0.74557   0.00000  Uiso   1.00
C2450  C     0.84817   0.94357   0.71762   0.00000  Uiso   1.00
C2451  C     0.86619   0.96095   0.70365   0.00000  Uiso   1.00
C2452  C     0.87720   0.98274   0.71560   0.00000  Uiso   1.00
C2453  C     0.84860   0.90742   0.71795   0.00000  Uiso   1.00
C2454  C     0.84042   0.88535   0.71992   0.00000  Uiso   1.00
C2455  C     0.85140   0.87433   0.73154   0.00000  Uiso   1.00
C2456  C     0.87260   0.88352   0.74350   0.00000  Uiso   1.00
C2457  C     0.88066   0.90579   0.74144   0.00000  Uiso   1.00
C2458  C     0.86960   0.91672   0.72968   0.00000  Uiso   1.00
C2459  C     0.80517   0.89750   0.74906   0.00000  Uiso   1.00
C2460  C     0.78343   0.88649   0.76136   0.00000  Uiso   1.00
C2461  C     0.76478   0.88311   0.74446   0.00000  Uiso   1.00
C2462  C     0.77209   0.89278   0.71293   0.00000  Uiso   1.00
C2463  C     0.79387   0.90376   0.70077   0.00000  Uiso   1.00
C2464  C     0.81220   0.90704   0.71780   0.00000  Uiso   1.00
H1545  H     0.87624   0.93375   0.51992   0.00000  Uiso   1.00
H1546  H     0.82207   0.87539   0.53917   0.00000  Uiso   1.00
H1547  H     0.84067   0.85649   0.51882   0.00000  Uiso   1.00
H1548  H     0.89500   0.91513   0.49935   0.00000  Uiso   1.00
H1549  H     0.79512   0.90802   0.57750   0.00000  Uiso   1.00
H1550  H     0.75773   0.88914   0.55737   0.00000  Uiso   1.00
H1551  H     0.77882   0.88129   0.46453   0.00000  Uiso   1.00
H1552  H     0.81611   0.90012   0.48513   0.00000  Uiso   1.00
H1553  H     0.84131   0.89370   0.59417   0.00000  Uiso   1.00
H1554  H     0.84203   0.89396   0.65643   0.00000  Uiso   1.00
H1555  H     0.83064   0.94503   0.65689   0.00000  Uiso   1.00
H1556  H     0.82986   0.94473   0.59443   0.00000  Uiso   1.00
H1557  H     0.84763   0.97682   0.78006   0.00000  Uiso   1.00
H1558  H     0.82894   0.93965   0.75930   0.00000  Uiso   1.00
H1559  H     0.87223   0.95706   0.68126   0.00000  Uiso   1.00
H1560  H     0.89108   0.99437   0.70162   0.00000  Uiso   1.00
H1561  H     0.82385   0.87584   0.71147   0.00000  Uiso   1.00
H1562  H     0.84259   0.85693   0.73133   0.00000  Uiso   1.00
H1563  H     0.89711   0.91556   0.74982   0.00000  Uiso   1.00
H1564  H     0.87818   0.93419   0.72966   0.00000  Uiso   1.00
H1565  H     0.81794   0.89880   0.76538   0.00000  Uiso   1.00
H1566  H     0.78075   0.87994   0.78651   0.00000  Uiso   1.00
H1567  H     0.75964   0.89169   0.69628   0.00000  Uiso   1.00
H1568  H     0.79684   0.91041   0.67555   0.00000  Uiso   1.00
H1569  H     0.25603   0.38049   0.50358   0.00000  Uiso   1.00
H1570  H     0.37598   0.38190   0.49951   0.00000  Uiso   1.00
H1571  H     0.25838   0.38064   0.75170   0.00000  Uiso   1.00
H1572  H     0.37820   0.38193   0.74743   0.00000  Uiso   1.00
H1573  H     0.25609   0.63047   0.50364   0.00000  Uiso   1.00
H1574  H     0.37304   0.74675   0.49945   0.00000  Uiso   1.00
H1575  H     0.25844   0.63062   0.75164   0.00000  Uiso   1.00
H1576  H     0.37767   0.74739   0.75139   0.00000  Uiso   1.00
H1577  H     0.62597   0.63191   0.49953   0.00000  Uiso   1.00
H1578  H     0.62298   0.74675   0.49944   0.00000  Uiso   1.00
H1579  H     0.62813   0.63190   0.74739   0.00000  Uiso   1.00
H1580  H     0.62763   0.74739   0.75133   0.00000  Uiso   1.00
H1581  H     0.25838   0.38064   0.25170   0.00000  Uiso   1.00
H1582  H     0.37820   0.38193   0.24743   0.00000  Uiso   1.00
H1583  H     0.25603   0.38049   0.00358   0.00000  Uiso   1.00
H1584  H     0.37598   0.38190   0.99951   0.00000  Uiso   1.00
H1585  H     0.25844   0.63062   0.25164   0.00000  Uiso   1.00
H1586  H     0.37767   0.74739   0.25139   0.00000  Uiso   1.00
H1587  H     0.25609   0.63047   0.00364   0.00000  Uiso   1.00
H1588  H     0.37304   0.74675   0.99945   0.00000  Uiso   1.00
H1589  H     0.62813   0.63190   0.24739   0.00000  Uiso   1.00
H1590  H     0.62763   0.74739   0.25133   0.00000  Uiso   1.00
H1591  H     0.62597   0.63191   0.99953   0.00000  Uiso   1.00
H1592  H     0.62298   0.74675   0.99944   0.00000  Uiso   1.00
loop_
_geom_bond_atom_site_label_1
_geom_bond_atom_site_label_2
_geom_bond_distance
_geom_bond_site_symmetry_2
_ccdc_geom_bond_type
C1     C2      1.393   .     S
C1     C6      1.394   .     D
C1     C1479   1.518   1_545 S
C2     C3      1.427   .     D
C2     H1      1.074   .     S
C3     C4      1.378   .     S
C3     H2      1.079   .     S
C4     C5      1.379   .     D
C4     C13     1.580   .     S
C5     C6      1.427   .     S
C5     H3      1.079   .     S
C6     H4      1.074   .     S
C7     C8      1.379   .     D
C7     C12     1.426   .     S
C7     H5      1.079   .     S
C8     C9      1.379   .     S
C8     C13     1.580   .     S
C9     C10     1.426   .     D
C9     H6      1.080   .     S
C10    C11     1.394   .     S
C10    H7      1.074   .     S
C11    C12     1.394   .     D
C11    C80     1.518   .     S
C12    H8      1.074   .     S
C13    C14     1.580   .     S
C13    C25     1.589   .     S
C14    C15     1.379   .     D
C14    C19     1.379   .     S
C15    C16     1.427   .     S
C15    H9      1.079   .     S
C16    C17     1.394   .     D
C16    H10     1.074   .     S
C17    C18     1.393   .     S
C17    C173    1.519   .     S
C18    C19     1.427   .     D
C18    H11     1.074   .     S
C19    H12     1.079   .     S
C20    C21     1.437   .     S
C20    C25     1.372   .     D
C20    H13     1.076   .     S
C21    C22     1.372   .     D
C21    H14     1.076   .     S
C22    C23     1.373   .     S
C22    C26     1.590   .     S
C23    C24     1.436   .     D
C23    H15     1.077   .     S
C24    C25     1.373   .     S
C24    H16     1.077   .     S
C26    C30     1.579   .     S
C26    C33     1.580   .     S
C26    C44     1.580   .     S
C27    C28     1.394   .     S
C27    C32     1.394   .     D
C27    C1717   1.518   1_545 S
C28    C29     1.427   .     D
C28    H17     1.074   .     S
C29    C30     1.379   .     S
C29    H18     1.078   .     S
C30    C31     1.379   .     D
C31    C32     1.427   .     S
C31    H19     1.080   .     S
C32    H20     1.074   .     S
C33    C34     1.379   .     S
C33    C38     1.378   .     D
C34    C35     1.427   .     D
C34    H21     1.079   .     S
C35    C36     1.394   .     S
C35    H22     1.074   .     S
C36    C37     1.394   .     D
C36    C363    1.518   .     S
C37    C38     1.427   .     S
C37    H23     1.074   .     S
C38    H24     1.078   .     S
C39    C40     1.427   .     S
C39    C44     1.379   .     D
C39    H25     1.080   .     S
C40    C41     1.394   .     D
C40    H26     1.074   .     S
C41    C42     1.394   .     S
C41    C457    1.518   .     S
C42    C43     1.427   .     D
C42    H27     1.074   .     S
C43    C44     1.378   .     S
C43    H28     1.079   .     S
C45    C46     1.394   1_554 S
C45    C50     1.394   .     D
C45    C511    1.518   1_554 S
C46    C45     1.394   1_556 S
C46    C47     1.427   1_556 D
C46    H29     1.074   .     S
C47    C46     1.427   1_554 D
C47    C48     1.378   .     S
C47    H30     1.079   1_554 S
C48    C49     1.379   .     D
C48    C57     1.579   .     S
C49    C50     1.427   .     S
C49    H31     1.080   .     S
C50    H32     1.073   .     S
H30    C47     1.079   1_556 S
C51    C52     1.379   .     S
C51    C56     1.427   .     D
C51    H33     1.079   .     S
C52    C53     1.379   .     D
C52    C57     1.580   .     S
C53    C54     1.428   .     S
C53    H34     1.080   .     S
C54    C55     1.394   .     D
C54    H35     1.074   .     S
C55    C56     1.394   .     S
C55    C344    1.518   1_554 S
C56    H36     1.074   1_554 S
C57    C58     1.580   .     S
C57    C69     1.589   .     S
C58    C59     1.379   .     D
C58    C63     1.379   .     S
C59    C60     1.427   .     S
C59    H37     1.079   .     S
C60    C61     1.394   .     D
C60    H38     1.074   .     S
C61    C62     1.394   1_554 S
C61    C1097   1.519   1_454 S
C62    C61     1.394   1_556 S
C62    C63     1.427   1_556 D
C62    H39     1.074   .     S
C63    C62     1.427   1_554 D
C63    H40     1.079   1_554 S
C64    C65     1.437   .     D
C64    C69     1.372   .     S
C64    H41     1.076   .     S
C65    C66     1.372   .     S
C65    H42     1.076   .     S
C66    C67     1.373   .     D
C66    C70     1.590   .     S
C67    C68     1.436   .     S
C67    H43     1.077   .     S
C68    C69     1.373   .     D
C68    H44     1.077   .     S
C70    C74     1.579   .     S
C70    C77     1.580   .     S
C70    C88     1.580   .     S
C71    C72     1.394   .     S
C71    C76     1.394   .     D
C71    C177    1.518   .     S
C72    C73     1.427   .     D
C72    H45     1.074   .     S
C73    C74     1.378   .     S
C73    H46     1.079   .     S
C74    C75     1.379   .     D
C75    C76     1.427   .     S
C75    H47     1.079   .     S
C76    H48     1.074   .     S
C77    C78     1.379   .     D
C77    C82     1.379   .     S
C78    C79     1.426   .     S
C78    H49     1.079   .     S
C79    C80     1.394   .     D
C79    H50     1.074   .     S
C80    C81     1.394   .     S
C81    C82     1.427   .     D
C81    H51     1.074   .     S
C82    H52     1.079   .     S
C83    C84     1.426   .     D
C83    C88     1.379   .     S
C83    H53     1.080   .     S
C84    C85     1.394   .     S
C84    H54     1.074   .     S
C85    C86     1.394   .     D
C85    C721    1.518   1_455 S
C86    C87     1.427   .     S
C86    H55     1.074   .     S
C87    C88     1.378   .     D
C87    H56     1.078   .     S
H36    C56     1.074   1_556 S
H40    C63     1.079   1_556 S
C89    C90     1.394   .     S
C89    C94     1.394   .     D
C89    C1567   1.519   1_545 S
C90    C91     1.427   .     D
C90    H57     1.073   .     S
C91    C92     1.379   .     S
C91    H58     1.079   .     S
C92    C93     1.379   .     D
C92    C101    1.579   .     S
C93    C94     1.427   .     S
C93    H59     1.079   .     S
C94    H60     1.073   .     S
C95    C96     1.378   .     D
C95    C100    1.427   .     S
C95    H61     1.078   .     S
C96    C97     1.379   .     S
C96    C101    1.579   .     S
C97    C98     1.427   .     D
C97    H62     1.079   .     S
C98    C99     1.394   .     S
C98    H63     1.074   .     S
C99    C100    1.394   .     D
C99    C168    1.519   .     S
C100   H64     1.074   .     S
C101   C102    1.580   .     S
C101   C113    1.589   .     S
C102   C103    1.378   .     D
C102   C107    1.379   .     S
C103   C104    1.427   .     S
C103   H65     1.079   .     S
C104   C105    1.394   .     D
C104   H66     1.074   .     S
C105   C106    1.394   .     S
C105   C701    1.519   .     S
C106   C107    1.427   .     D
C106   H67     1.074   .     S
C107   H68     1.079   .     S
C108   C109    1.437   .     S
C108   C113    1.373   .     D
C108   H69     1.076   .     S
C109   C110    1.372   .     D
C109   H70     1.076   .     S
C110   C111    1.373   .     S
C110   C114    1.590   .     S
C111   C112    1.436   .     D
C111   H71     1.077   .     S
C112   C113    1.373   .     S
C112   H72     1.077   .     S
C114   C118    1.580   .     S
C114   C121    1.580   .     S
C114   C132    1.580   .     S
C115   C116    1.394   .     S
C115   C120    1.394   .     D
C115   C1805   1.518   1_545 S
C116   C117    1.427   .     D
C116   H73     1.074   .     S
C117   C118    1.378   .     S
C117   H74     1.078   .     S
C118   C119    1.379   .     D
C119   C120    1.426   .     S
C119   H75     1.080   .     S
C120   H76     1.074   .     S
C121   C122    1.379   .     S
C121   C126    1.379   .     D
C122   C123    1.427   .     D
C122   H77     1.079   .     S
C123   C124    1.394   .     S
C123   H78     1.074   .     S
C124   C125    1.394   .     D
C124   C451    1.518   .     S
C125   C126    1.427   .     S
C125   H79     1.074   .     S
C126   H80     1.078   .     S
C127   C128    1.427   .     S
C127   C132    1.379   .     D
C127   H81     1.079   .     S
C128   C129    1.394   .     D
C128   H82     1.074   .     S
C129   C130    1.394   .     S
C129   C1029   1.518   .     S
C130   C131    1.427   .     D
C130   H83     1.074   .     S
C131   C132    1.379   .     S
C131   H84     1.079   .     S
C133   C134    1.394   1_554 S
C133   C138    1.394   .     D
C133   C599    1.518   1_554 S
C134   C133    1.394   1_556 S
C134   C135    1.427   1_556 D
C134   H85     1.074   .     S
C135   C134    1.427   1_554 D
C135   C136    1.379   .     S
C135   H86     1.078   1_554 S
C136   C137    1.379   .     D
C136   C145    1.579   .     S
C137   C138    1.427   .     S
C137   H87     1.079   .     S
C138   H88     1.074   .     S
H86    C135    1.078   1_556 S
C139   C140    1.379   .     S
C139   C144    1.427   .     D
C139   H89     1.079   .     S
C140   C141    1.379   .     D
C140   C145    1.581   .     S
C141   C142    1.427   .     S
C141   H90     1.079   .     S
C142   C143    1.394   .     D
C142   H91     1.074   .     S
C143   C144    1.394   .     S
C143   C432    1.518   1_554 S
C144   H92     1.073   1_554 S
C145   C146    1.580   .     S
C145   C157    1.590   .     S
C146   C147    1.379   .     D
C146   C151    1.379   .     S
C147   C148    1.427   .     S
C147   H93     1.079   .     S
C148   C149    1.394   .     D
C148   H94     1.074   .     S
C149   C150    1.394   1_554 S
C149   C349    1.518   1_554 S
C150   C149    1.394   1_556 S
C150   C151    1.427   1_556 D
C150   H95     1.074   .     S
C151   C150    1.427   1_554 D
C151   H96     1.080   1_554 S
C152   C153    1.437   .     D
C152   C157    1.372   .     S
C152   H97     1.076   .     S
C153   C154    1.372   .     S
C153   H98     1.076   .     S
C154   C155    1.373   .     D
C154   C158    1.589   .     S
C155   C156    1.436   .     S
C155   H99     1.077   .     S
C156   C157    1.372   .     D
C156   H100    1.077   .     S
C158   C162    1.580   .     S
C158   C165    1.579   .     S
C158   C176    1.580   .     S
C159   C160    1.394   .     S
C159   C164    1.394   .     D
C159   C265    1.518   .     S
C160   C161    1.427   .     D
C160   H101    1.074   .     S
C161   C162    1.379   .     S
C161   H102    1.079   .     S
C162   C163    1.379   .     D
C163   C164    1.427   .     S
C163   H103    1.080   .     S
C164   H104    1.073   .     S
C165   C166    1.379   .     D
C165   C170    1.379   .     S
C166   C167    1.426   .     S
C166   H105    1.080   .     S
C167   C168    1.394   .     D
C167   H106    1.074   .     S
C168   C169    1.394   .     S
C169   C170    1.427   .     D
C169   H107    1.074   .     S
C170   H108    1.079   .     S
C171   C172    1.427   .     D
C171   C176    1.379   .     S
C171   H109    1.079   .     S
C172   C173    1.394   .     S
C172   H110    1.074   .     S
C173   C174    1.394   .     D
C174   C175    1.427   .     S
C174   H111    1.074   .     S
C175   C176    1.379   .     D
C175   H112    1.079   .     S
H92    C144    1.073   1_556 S
H96    C151    1.080   1_556 S
C177   C178    1.394   .     S
C177   C182    1.394   .     D
C178   C179    1.426   .     D
C178   H113    1.074   .     S
C179   C180    1.379   .     S
C179   H114    1.079   .     S
C180   C181    1.379   .     D
C180   C189    1.577   .     S
C181   C182    1.427   .     S
C181   H115    1.079   .     S
C182   H116    1.074   .     S
C183   C184    1.379   .     D
C183   C188    1.426   .     S
C183   H117    1.078   .     S
C184   C185    1.380   .     S
C184   C189    1.577   .     S
C185   C186    1.426   .     D
C185   H118    1.080   .     S
C186   C187    1.394   .     S
C186   H119    1.074   .     S
C187   C188    1.394   .     D
C187   C256    1.518   .     S
C188   H120    1.074   .     S
C189   C190    1.589   .     S
C189   C201    1.587   .     S
C190   C191    1.372   .     D
C190   C195    1.372   .     S
C191   C192    1.438   .     S
C191   H121    1.076   .     S
C192   C193    1.370   .     D
C192   H122    1.077   .     S
C193   C194    1.371   .     S
C193   H1581   1.071   .     S
C194   C195    1.437   .     D
C194   H123    1.077   .     S
C195   H124    1.077   .     S
C196   C197    1.436   .     S
C196   C201    1.373   .     D
C196   H125    1.076   .     S
C197   C198    1.372   .     D
C197   H126    1.076   .     S
C198   C199    1.374   .     S
C198   C202    1.587   .     S
C199   C200    1.436   .     D
C199   H127    1.077   .     S
C200   C201    1.373   .     S
C200   H128    1.077   .     S
C202   C206    1.576   .     S
C202   C209    1.578   .     S
C202   C220    1.589   .     S
C203   C204    1.393   .     D
C203   C208    1.394   .     S
C203   C353    1.518   .     S
C204   C205    1.427   .     S
C204   H129    1.074   .     S
C205   C206    1.379   .     D
C205   H130    1.079   .     S
C206   C207    1.380   .     S
C207   C208    1.426   .     D
C207   H131    1.079   .     S
C208   H132    1.074   .     S
C209   C210    1.379   .     S
C209   C214    1.379   .     D
C210   C211    1.426   .     D
C210   H133    1.080   .     S
C211   C212    1.394   .     S
C211   H134    1.074   .     S
C212   C213    1.394   .     D
C212   C539    1.518   .     S
C213   C214    1.427   .     S
C213   H135    1.074   .     S
C214   H136    1.078   .     S
C215   C216    1.437   .     D
C215   C220    1.372   .     S
C215   H137    1.076   .     S
C216   C217    1.371   .     S
C216   H138    1.077   .     S
C217   C218    1.370   .     D
C217   H1569   1.071   .     S
C218   C219    1.438   .     S
C218   H139    1.077   .     S
C219   C220    1.372   .     D
C219   H140    1.076   .     S
C221   C222    1.394   1_554 S
C221   C226    1.394   .     D
C221   C1611   1.518   1_554 S
C222   C221    1.394   1_556 S
C222   C223    1.427   1_556 D
C222   H141    1.074   .     S
C223   C222    1.427   1_554 D
C223   C224    1.379   .     S
C223   H142    1.079   1_554 S
C224   C225    1.379   .     D
C224   C233    1.579   .     S
C225   C226    1.427   .     S
C225   H143    1.079   .     S
C226   H144    1.074   .     S
H142   C223    1.079   1_556 S
C227   C228    1.378   .     S
C227   C232    1.426   .     D
C227   H145    1.079   .     S
C228   C229    1.379   .     D
C228   C233    1.581   .     S
C229   C230    1.427   .     S
C229   H146    1.079   .     S
C230   C231    1.394   .     D
C230   H147    1.074   .     S
C231   C232    1.394   .     S
C231   C520    1.518   1_554 S
C232   H148    1.074   1_554 S
C233   C234    1.580   .     S
C233   C245    1.590   .     S
C234   C235    1.378   .     D
C234   C239    1.379   .     S
C235   C236    1.428   .     S
C235   H149    1.079   .     S
C236   C237    1.394   .     D
C236   H150    1.074   .     S
C237   C238    1.394   1_554 S
C237   C1273   1.518   1_454 S
C238   C237    1.394   1_556 S
C238   C239    1.427   1_556 D
C238   H151    1.074   .     S
C239   C238    1.427   1_554 D
C239   H152    1.079   1_554 S
C240   C241    1.437   .     D
C240   C245    1.372   .     S
C240   H153    1.076   .     S
C241   C242    1.372   .     S
C241   H154    1.076   .     S
C242   C243    1.373   .     D
C242   C246    1.590   .     S
C243   C244    1.436   .     S
C243   H155    1.077   .     S
C244   C245    1.373   .     D
C244   H156    1.077   .     S
C246   C250    1.580   .     S
C246   C253    1.579   .     S
C246   C264    1.581   .     S
C247   C248    1.394   .     S
C247   C252    1.394   .     D
C247   C1321   1.518   .     S
C248   C249    1.428   .     D
C248   H157    1.073   .     S
C249   C250    1.378   .     S
C249   H158    1.079   .     S
C250   C251    1.379   .     D
C251   C252    1.427   .     S
C251   H159    1.079   .     S
C252   H160    1.074   .     S
C253   C254    1.379   .     D
C253   C258    1.379   .     S
C254   C255    1.427   .     S
C254   H161    1.080   .     S
C255   C256    1.394   .     D
C255   H162    1.074   .     S
C256   C257    1.394   .     S
C257   C258    1.427   .     D
C257   H163    1.074   .     S
C258   H164    1.078   .     S
C259   C260    1.427   .     D
C259   C264    1.379   .     S
C259   H165    1.079   .     S
C260   C261    1.394   .     S
C260   H166    1.074   .     S
C261   C262    1.393   .     D
C261   C897    1.519   1_455 S
C262   C263    1.427   .     S
C262   H167    1.074   .     S
C263   C264    1.378   .     D
C263   H168    1.079   .     S
H148   C232    1.074   1_556 S
H152   C239    1.079   1_556 S
C265   C266    1.394   .     S
C265   C270    1.394   .     D
C266   C267    1.427   .     D
C266   H169    1.073   .     S
C267   C268    1.379   .     S
C267   H170    1.078   .     S
C268   C269    1.380   .     D
C268   C277    1.577   .     S
C269   C270    1.426   .     S
C269   H171    1.079   .     S
C270   H172    1.074   .     S
C271   C272    1.372   .     D
C271   C276    1.438   .     S
C271   H173    1.076   .     S
C272   C273    1.372   .     S
C272   C277    1.589   .     S
C273   C274    1.437   .     D
C273   H174    1.077   .     S
C274   C275    1.370   .     S
C274   H175    1.077   .     S
C275   C276    1.370   .     D
C275   H1582   1.071   .     S
C276   H176    1.077   .     S
C277   C278    1.577   .     S
C277   C289    1.587   .     S
C278   C279    1.379   .     D
C278   C283    1.380   .     S
C279   C280    1.427   .     S
C279   H177    1.079   .     S
C280   C281    1.394   .     D
C280   H178    1.074   .     S
C281   C282    1.394   .     S
C281   C877    1.518   .     S
C282   C283    1.426   .     D
C282   H179    1.074   .     S
C283   H180    1.080   .     S
C284   C285    1.436   .     S
C284   C289    1.373   .     D
C284   H181    1.075   .     S
C285   C286    1.373   .     D
C285   H182    1.076   .     S
C286   C287    1.374   .     S
C286   C290    1.587   .     S
C287   C288    1.436   .     D
C287   H183    1.077   .     S
C288   C289    1.373   .     S
C288   H184    1.077   .     S
C290   C294    1.577   .     S
C290   C297    1.589   .     S
C290   C308    1.577   .     S
C291   C292    1.394   .     D
C291   C296    1.394   .     S
C291   C441    1.518   .     S
C292   C293    1.427   .     S
C292   H185    1.074   .     S
C293   C294    1.379   .     D
C293   H186    1.078   .     S
C294   C295    1.380   .     S
C295   C296    1.426   .     D
C295   H187    1.079   .     S
C296   H188    1.074   .     S
C297   C298    1.372   .     S
C297   C302    1.372   .     D
C298   C299    1.437   .     D
C298   H189    1.077   .     S
C299   C300    1.371   .     S
C299   H190    1.077   .     S
C300   C301    1.370   .     D
C300   H1570   1.071   .     S
C301   C302    1.438   .     S
C301   H191    1.077   .     S
C302   H192    1.076   .     S
C303   C304    1.426   .     S
C303   C308    1.380   .     D
C303   H193    1.080   .     S
C304   C305    1.394   .     D
C304   H194    1.074   .     S
C305   C306    1.394   .     S
C305   C1205   1.518   .     S
C306   C307    1.427   .     D
C306   H195    1.074   .     S
C307   C308    1.379   .     S
C307   H196    1.079   .     S
C309   C310    1.393   .     D
C309   C314    1.394   .     S
C309   C1743   1.518   1_545 S
C310   C311    1.427   .     S
C310   H197    1.074   .     S
C311   C312    1.378   .     D
C311   H198    1.079   .     S
C312   C313    1.379   .     S
C312   C321    1.580   .     S
C313   C314    1.427   .     D
C313   H199    1.079   .     S
C314   H200    1.074   .     S
C315   C316    1.379   .     S
C315   C320    1.426   .     D
C315   H201    1.079   .     S
C316   C317    1.379   .     D
C316   C321    1.580   .     S
C317   C318    1.426   .     S
C317   H202    1.080   .     S
C318   C319    1.394   .     D
C318   H203    1.074   .     S
C319   C320    1.394   .     S
C319   C388    1.518   .     S
C320   H204    1.074   .     S
C321   C322    1.580   .     S
C321   C333    1.589   .     S
C322   C323    1.379   .     D
C322   C327    1.379   .     S
C323   C324    1.427   .     S
C323   H205    1.079   .     S
C324   C325    1.394   .     D
C324   H206    1.074   .     S
C325   C326    1.393   .     S
C325   C481    1.519   .     S
C326   C327    1.427   .     D
C326   H207    1.074   .     S
C327   H208    1.079   .     S
C328   C329    1.437   .     S
C328   C333    1.372   .     D
C328   H209    1.076   .     S
C329   C330    1.372   .     D
C329   H210    1.076   .     S
C330   C331    1.373   .     S
C330   C334    1.590   .     S
C331   C332    1.436   .     D
C331   H211    1.078   .     S
C332   C333    1.372   .     S
C332   H212    1.077   .     S
C334   C338    1.579   .     S
C334   C341    1.580   .     S
C334   C352    1.580   .     S
C335   C336    1.394   1_556 D
C335   C340    1.394   .     S
C335   C1453   1.518   1_546 S
C336   C335    1.394   1_554 D
C336   C337    1.427   1_554 S
C336   H213    1.074   .     S
C337   C336    1.427   1_556 S
C337   C338    1.378   .     D
C337   H214    1.079   1_556 S
C338   C339    1.379   .     S
C339   C340    1.427   .     D
C339   H215    1.080   .     S
C340   H216    1.074   .     S
C341   C342    1.379   .     S
C341   C346    1.378   .     D
C342   C343    1.427   .     D
C342   H217    1.079   .     S
C343   C344    1.394   .     S
C343   H218    1.074   .     S
C344   C55     1.518   1_556 S
C344   C345    1.394   .     D
C345   C346    1.427   .     S
C345   H219    1.073   .     S
C346   H220    1.078   .     S
C347   C348    1.427   1_556 D
C347   C352    1.379   .     S
C347   H221    1.079   1_556 S
C348   C347    1.427   1_554 D
C348   C349    1.394   1_554 S
C348   H222    1.074   .     S
C349   C348    1.394   1_556 S
C349   C149    1.518   1_556 S
C349   C350    1.394   .     D
C350   C351    1.427   .     S
C350   H223    1.074   .     S
C351   C352    1.378   .     D
C351   H224    1.079   .     S
H214   C337    1.079   1_554 S
H221   C347    1.079   1_554 S
C353   C354    1.394   .     S
C353   C358    1.394   .     D
C354   C355    1.427   .     D
C354   H225    1.074   .     S
C355   C356    1.378   .     S
C355   H226    1.079   .     S
C356   C357    1.379   .     D
C356   C365    1.579   .     S
C357   C358    1.427   .     S
C357   H227    1.080   .     S
C358   H228    1.073   .     S
C359   C360    1.378   .     S
C359   C364    1.427   .     D
C359   H229    1.078   .     S
C360   C361    1.379   .     D
C360   C365    1.581   .     S
C361   C362    1.428   .     S
C361   H230    1.079   .     S
C362   C363    1.394   .     D
C362   H231    1.074   .     S
C363   C364    1.394   .     S
C364   H232    1.074   .     S
C365   C366    1.580   .     S
C365   C377    1.590   .     S
C366   C367    1.379   .     D
C366   C371    1.379   .     S
C367   C368    1.427   .     S
C367   H233    1.079   .     S
C368   C369    1.394   .     D
C368   H234    1.074   .     S
C369   C370    1.394   .     S
C369   C745    1.519   1_455 S
C370   C371    1.427   .     D
C370   H235    1.074   .     S
C371   H236    1.079   .     S
C372   C373    1.437   .     D
C372   C377    1.372   .     S
C372   H237    1.076   .     S
C373   C374    1.372   .     S
C373   H238    1.076   .     S
C374   C375    1.373   .     D
C374   C378    1.589   .     S
C375   C376    1.436   .     S
C375   H239    1.077   .     S
C376   C377    1.373   .     D
C376   H240    1.077   .     S
C378   C382    1.580   .     S
C378   C385    1.579   .     S
C378   C396    1.580   .     S
C379   C380    1.394   .     S
C379   C384    1.394   .     D
C379   C485    1.518   .     S
C380   C381    1.427   .     D
C380   H241    1.074   .     S
C381   C382    1.378   .     S
C381   H242    1.079   .     S
C382   C383    1.379   .     D
C383   C384    1.427   .     S
C383   H243    1.079   .     S
C384   H244    1.074   .     S
C385   C386    1.379   .     S
C385   C390    1.379   .     D
C386   C387    1.426   .     D
C386   H245    1.079   .     S
C387   C388    1.394   .     S
C387   H246    1.074   .     S
C388   C389    1.394   .     D
C389   C390    1.427   .     S
C389   H247    1.074   .     S
C390   H248    1.079   .     S
C391   C392    1.426   .     D
C391   C396    1.379   .     S
C391   H249    1.080   .     S
C392   C393    1.394   .     S
C392   H250    1.074   .     S
C393   C394    1.394   .     D
C393   C1073   1.518   1_455 S
C394   C395    1.427   .     S
C394   H251    1.074   .     S
C395   C396    1.378   .     D
C395   H252    1.078   .     S
C397   C398    1.394   .     D
C397   C402    1.394   .     S
C397   C1831   1.519   1_545 S
C398   C399    1.427   .     S
C398   H253    1.073   .     S
C399   C400    1.379   .     D
C399   H254    1.079   .     S
C400   C401    1.379   .     S
C400   C409    1.579   .     S
C401   C402    1.427   .     D
C401   H255    1.079   .     S
C402   H256    1.074   .     S
C403   C404    1.378   .     S
C403   C408    1.427   .     D
C403   H257    1.078   .     S
C404   C405    1.379   .     D
C404   C409    1.579   .     S
C405   C406    1.427   .     S
C405   H258    1.079   .     S
C406   C407    1.394   .     D
C406   H259    1.074   .     S
C407   C408    1.394   .     S
C407   C476    1.519   .     S
C408   H260    1.074   .     S
C409   C410    1.580   .     S
C409   C421    1.590   .     S
C410   C411    1.378   .     D
C410   C415    1.379   .     S
C411   C412    1.427   .     S
C411   H261    1.079   .     S
C412   C413    1.394   .     D
C412   H262    1.074   .     S
C413   C414    1.394   .     S
C413   C1053   1.519   .     S
C414   C415    1.427   .     D
C414   H263    1.074   .     S
C415   H264    1.079   .     S
C416   C417    1.437   .     S
C416   C421    1.372   .     D
C416   H265    1.076   .     S
C417   C418    1.372   .     D
C417   H266    1.076   .     S
C418   C419    1.373   .     S
C418   C422    1.590   .     S
C419   C420    1.436   .     D
C419   H267    1.077   .     S
C420   C421    1.373   .     S
C420   H268    1.077   .     S
C422   C426    1.580   .     S
C422   C429    1.580   .     S
C422   C440    1.580   .     S
C423   C424    1.394   1_556 D
C423   C428    1.394   .     S
C423   C1541   1.518   1_546 S
C424   C423    1.394   1_554 D
C424   C425    1.427   1_554 S
C424   H269    1.074   .     S
C425   C424    1.427   1_556 S
C425   C426    1.378   .     D
C425   H270    1.079   1_556 S
C426   C427    1.379   .     S
C427   C428    1.426   .     D
C427   H271    1.080   .     S
C428   H272    1.074   .     S
C429   C430    1.379   .     S
C429   C434    1.379   .     D
C430   C431    1.427   .     D
C430   H273    1.079   .     S
C431   C432    1.394   .     S
C431   H274    1.074   .     S
C432   C143    1.518   1_556 S
C432   C433    1.394   .     D
C433   C434    1.427   .     S
C433   H275    1.074   .     S
C434   H276    1.078   .     S
C435   C436    1.427   1_556 S
C435   C440    1.379   .     D
C435   H277    1.079   1_556 S
C436   C435    1.427   1_554 S
C436   C437    1.394   1_554 D
C436   H278    1.074   .     S
C437   C436    1.394   1_556 D
C437   C438    1.394   .     S
C437   C677    1.518   1_556 S
C438   C439    1.427   .     D
C438   H279    1.074   .     S
C439   C440    1.379   .     S
C439   H280    1.079   .     S
H270   C425    1.079   1_554 S
H277   C435    1.079   1_554 S
C441   C442    1.394   .     S
C441   C446    1.394   .     D
C442   C443    1.427   .     D
C442   H281    1.074   .     S
C443   C444    1.379   .     S
C443   H282    1.079   .     S
C444   C445    1.379   .     D
C444   C453    1.579   .     S
C445   C446    1.427   .     S
C445   H283    1.079   .     S
C446   H284    1.074   .     S
C447   C448    1.379   .     S
C447   C452    1.427   .     D
C447   H285    1.079   .     S
C448   C449    1.379   .     D
C448   C453    1.581   .     S
C449   C450    1.427   .     S
C449   H286    1.079   .     S
C450   C451    1.394   .     D
C450   H287    1.074   .     S
C451   C452    1.393   .     S
C452   H288    1.073   .     S
C453   C454    1.580   .     S
C453   C465    1.590   .     S
C454   C455    1.379   .     S
C454   C459    1.379   .     D
C455   C456    1.427   .     D
C455   H289    1.079   .     S
C456   C457    1.394   .     S
C456   H290    1.074   .     S
C457   C458    1.394   .     D
C458   C459    1.427   .     S
C458   H291    1.074   .     S
C459   H292    1.080   .     S
C460   C461    1.437   .     D
C460   C465    1.373   .     S
C460   H293    1.076   .     S
C461   C462    1.372   .     S
C461   H294    1.076   .     S
C462   C463    1.373   .     D
C462   C466    1.590   .     S
C463   C464    1.436   .     S
C463   H295    1.077   .     S
C464   C465    1.372   .     D
C464   H296    1.077   .     S
C466   C470    1.580   .     S
C466   C473    1.579   .     S
C466   C484    1.580   .     S
C467   C468    1.394   .     S
C467   C472    1.394   .     D
C467   C573    1.518   .     S
C468   C469    1.427   .     D
C468   H297    1.074   .     S
C469   C470    1.379   .     S
C469   H298    1.079   .     S
C470   C471    1.379   .     D
C471   C472    1.427   .     S
C471   H299    1.080   .     S
C472   H300    1.073   .     S
C473   C474    1.379   .     S
C473   C478    1.379   .     D
C474   C475    1.426   .     D
C474   H301    1.080   .     S
C475   C476    1.394   .     S
C475   H302    1.074   .     S
C476   C477    1.394   .     D
C477   C478    1.427   .     S
C477   H303    1.074   .     S
C478   H304    1.079   .     S
C479   C480    1.427   .     S
C479   C484    1.379   .     D
C479   H305    1.079   .     S
C480   C481    1.394   .     D
C480   H306    1.074   .     S
C481   C482    1.394   .     S
C482   C483    1.427   .     D
C482   H307    1.074   .     S
C483   C484    1.379   .     S
C483   H308    1.079   .     S
C485   C486    1.394   .     S
C485   C490    1.394   .     D
C486   C487    1.426   .     D
C486   H309    1.074   .     S
C487   C488    1.379   .     S
C487   H310    1.079   .     S
C488   C489    1.380   .     D
C488   C497    1.577   .     S
C489   C490    1.427   .     S
C489   H311    1.079   .     S
C490   H312    1.074   .     S
C491   C492    1.379   .     S
C491   C496    1.426   .     D
C491   H313    1.078   .     S
C492   C493    1.380   .     D
C492   C497    1.577   .     S
C493   C494    1.426   .     S
C493   H314    1.080   .     S
C494   C495    1.394   .     D
C494   H315    1.074   .     S
C495   C496    1.394   .     S
C495   C564    1.518   .     S
C496   H316    1.074   .     S
C497   C498    1.589   .     S
C497   C509    1.587   .     S
C498   C499    1.372   .     D
C498   C503    1.372   .     S
C499   C500    1.438   .     S
C499   H317    1.076   .     S
C500   C501    1.370   .     D
C500   H318    1.077   .     S
C501   C502    1.371   .     S
C501   H1571   1.071   .     S
C502   C503    1.437   .     D
C502   H319    1.077   .     S
C503   H320    1.077   .     S
C504   C505    1.436   .     S
C504   C509    1.373   .     D
C504   H321    1.076   .     S
C505   C506    1.372   .     D
C505   H322    1.076   .     S
C506   C507    1.374   .     S
C506   C510    1.587   .     S
C507   C508    1.436   .     D
C507   H323    1.077   .     S
C508   C509    1.373   .     S
C508   H324    1.077   .     S
C510   C514    1.576   .     S
C510   C517    1.578   .     S
C510   C528    1.589   .     S
C511   C45     1.518   1_556 S
C511   C512    1.393   1_556 S
C511   C516    1.394   .     D
C512   C511    1.393   1_554 S
C512   C513    1.427   1_554 D
C512   H325    1.074   .     S
C513   C512    1.427   1_556 D
C513   C514    1.380   .     S
C513   H326    1.079   1_556 S
C514   C515    1.380   .     D
C515   C516    1.426   .     S
C515   H327    1.079   .     S
C516   H328    1.074   .     S
C517   C518    1.379   .     S
C517   C522    1.379   .     D
C518   C519    1.426   .     D
C518   H329    1.079   .     S
C519   C520    1.394   .     S
C519   H330    1.074   .     S
C520   C231    1.518   1_556 S
C520   C521    1.394   .     D
C521   C522    1.427   .     S
C521   H331    1.074   1_556 S
C522   H332    1.078   .     S
C523   C524    1.437   1_556 D
C523   C528    1.372   .     S
C523   H333    1.076   1_556 S
C524   C523    1.437   1_554 D
C524   C525    1.371   1_554 S
C524   H334    1.077   .     S
C525   C524    1.371   1_556 S
C525   C526    1.370   .     D
C525   H1583   1.071   1_556 S
C526   C527    1.438   .     S
C526   H335    1.077   .     S
C527   C528    1.372   .     D
C527   H336    1.076   .     S
H326   C513    1.079   1_554 S
H331   C521    1.074   1_554 S
H333   C523    1.076   1_554 S
C529   C530    1.394   .     S
C529   C534    1.394   .     D
C529   C1347   1.518   .     S
C530   C531    1.427   .     D
C530   H337    1.074   .     S
C531   C532    1.379   .     S
C531   H338    1.079   .     S
C532   C533    1.379   .     D
C532   C541    1.579   .     S
C533   C534    1.427   .     S
C533   H339    1.079   .     S
C534   H340    1.074   .     S
C535   C536    1.378   .     S
C535   C540    1.427   .     D
C535   H341    1.079   .     S
C536   C537    1.379   .     D
C536   C541    1.581   .     S
C537   C538    1.427   .     S
C537   H342    1.080   .     S
C538   C539    1.394   .     D
C538   H343    1.074   .     S
C539   C540    1.394   .     S
C540   H344    1.074   .     S
C541   C542    1.580   .     S
C541   C553    1.590   .     S
C542   C543    1.378   .     D
C542   C547    1.379   .     S
C543   C544    1.427   .     S
C543   H345    1.079   .     S
C544   C545    1.394   .     D
C544   H346    1.074   .     S
C545   C546    1.394   .     S
C545   C921    1.518   1_455 S
C546   C547    1.427   .     D
C546   H347    1.074   .     S
C547   H348    1.079   .     S
C548   C549    1.437   .     D
C548   C553    1.372   .     S
C548   H349    1.076   .     S
C549   C550    1.372   .     S
C549   H350    1.076   .     S
C550   C551    1.373   .     D
C550   C554    1.589   .     S
C551   C552    1.436   .     S
C551   H351    1.077   .     S
C552   C553    1.373   .     D
C552   H352    1.077   .     S
C554   C558    1.580   .     S
C554   C561    1.579   .     S
C554   C572    1.581   .     S
C555   C556    1.394   .     S
C555   C560    1.394   .     D
C555   C1585   1.518   .     S
C556   C557    1.427   .     D
C556   H353    1.074   .     S
C557   C558    1.378   .     S
C557   H354    1.079   .     S
C558   C559    1.379   .     D
C559   C560    1.427   .     S
C559   H355    1.079   .     S
C560   H356    1.074   .     S
C561   C562    1.379   .     S
C561   C566    1.379   .     D
C562   C563    1.427   .     D
C562   H357    1.080   .     S
C563   C564    1.394   .     S
C563   H358    1.074   .     S
C564   C565    1.394   .     D
C565   C566    1.427   .     S
C565   H359    1.074   .     S
C566   H360    1.078   .     S
C567   C568    1.427   .     D
C567   C572    1.378   .     S
C567   H361    1.079   .     S
C568   C569    1.394   .     S
C568   H362    1.074   .     S
C569   C570    1.394   .     D
C569   C1249   1.519   1_455 S
C570   C571    1.427   .     S
C570   H363    1.074   .     S
C571   C572    1.379   .     D
C571   H364    1.079   .     S
C573   C574    1.394   .     S
C573   C578    1.394   .     D
C574   C575    1.427   .     D
C574   H365    1.073   .     S
C575   C576    1.379   .     S
C575   H366    1.078   .     S
C576   C577    1.380   .     D
C576   C585    1.577   .     S
C577   C578    1.426   .     S
C577   H367    1.079   .     S
C578   H368    1.074   .     S
C579   C580    1.372   .     D
C579   C584    1.438   .     S
C579   H369    1.076   .     S
C580   C581    1.373   .     S
C580   C585    1.589   .     S
C581   C582    1.437   .     D
C581   H370    1.077   .     S
C582   C583    1.370   .     S
C582   H371    1.077   .     S
C583   C584    1.370   .     D
C583   H1572   1.071   .     S
C584   H372    1.077   .     S
C585   C586    1.577   .     S
C585   C597    1.587   .     S
C586   C587    1.379   .     D
C586   C591    1.380   .     S
C587   C588    1.427   .     S
C587   H373    1.079   .     S
C588   C589    1.394   .     D
C588   H374    1.074   .     S
C589   C590    1.394   .     S
C589   C1229   1.518   .     S
C590   C591    1.426   .     D
C590   H375    1.074   .     S
C591   H376    1.080   .     S
C592   C593    1.436   .     S
C592   C597    1.373   .     D
C592   H377    1.075   .     S
C593   C594    1.373   .     D
C593   H378    1.076   .     S
C594   C595    1.374   .     S
C594   C598    1.587   .     S
C595   C596    1.436   .     D
C595   H379    1.077   .     S
C596   C597    1.374   .     S
C596   H380    1.077   .     S
C598   C602    1.577   .     S
C598   C605    1.589   .     S
C598   C616    1.577   .     S
C599   C133    1.518   1_556 S
C599   C600    1.394   1_556 S
C599   C604    1.394   .     D
C600   C599    1.394   1_554 S
C600   C601    1.427   1_554 D
C600   H381    1.074   .     S
C601   C600    1.427   1_556 D
C601   C602    1.379   .     S
C601   H382    1.078   1_556 S
C602   C603    1.380   .     D
C603   C604    1.426   .     S
C603   H383    1.079   .     S
C604   H384    1.074   .     S
C605   C606    1.372   .     S
C605   C610    1.371   .     D
C606   C607    1.437   .     D
C606   H385    1.077   .     S
C607   C608    1.371   .     S
C607   H386    1.077   .     S
C608   C609    1.370   .     D
C608   H1584   1.071   .     S
C609   C610    1.438   .     S
C609   H387    1.077   .     S
C610   H388    1.076   .     S
C611   C612    1.426   1_556 S
C611   C616    1.380   .     D
C611   H389    1.080   1_556 S
C612   C611    1.426   1_554 S
C612   C613    1.394   1_554 D
C612   H390    1.074   .     S
C613   C612    1.394   1_556 D
C613   C614    1.394   .     S
C613   C853    1.518   1_556 S
C614   C615    1.427   .     D
C614   H391    1.074   .     S
C615   C616    1.379   .     S
C615   H392    1.079   .     S
H382   C601    1.078   1_554 S
H389   C611    1.080   1_554 S
C617   C618    1.394   .     S
C617   C622    1.394   .     D
C617   C2051   1.518   1_545 S
C618   C619    1.427   .     D
C618   H393    1.074   .     S
C619   C620    1.379   .     S
C619   H394    1.079   .     S
C620   C621    1.379   .     D
C620   C629    1.580   .     S
C621   C622    1.427   .     S
C621   H395    1.079   .     S
C622   H396    1.074   .     S
C623   C624    1.378   .     D
C623   C628    1.427   .     S
C623   H397    1.078   .     S
C624   C625    1.379   .     S
C624   C629    1.579   .     S
C625   C626    1.427   .     D
C625   H398    1.079   .     S
C626   C627    1.394   .     S
C626   H399    1.074   .     S
C627   C628    1.393   .     D
C627   C696    1.518   .     S
C628   H400    1.074   .     S
C629   C630    1.580   .     S
C629   C641    1.590   .     S
C630   C631    1.379   .     D
C630   C635    1.379   .     S
C631   C632    1.427   .     S
C631   H401    1.079   .     S
C632   C633    1.393   .     D
C632   H402    1.074   .     S
C633   C634    1.394   .     S
C633   C789    1.519   .     S
C634   C635    1.426   .     D
C634   H403    1.074   .     S
C635   H404    1.080   .     S
C636   C637    1.437   .     S
C636   C641    1.372   .     D
C636   H405    1.077   .     S
C637   C638    1.372   .     D
C637   H406    1.076   .     S
C638   C639    1.373   .     S
C638   C642    1.590   .     S
C639   C640    1.436   .     D
C639   H407    1.077   .     S
C640   C641    1.373   .     S
C640   H408    1.077   .     S
C642   C646    1.579   .     S
C642   C649    1.580   .     S
C642   C660    1.580   .     S
C643   C644    1.394   .     D
C643   C648    1.393   .     S
C643   C2333   1.518   1_545 S
C644   C645    1.427   .     S
C644   H409    1.074   .     S
C645   C646    1.379   .     D
C645   H410    1.079   .     S
C646   C647    1.379   .     S
C647   C648    1.427   .     D
C647   H411    1.079   .     S
C648   H412    1.074   .     S
C649   C650    1.379   .     D
C649   C654    1.378   .     S
C650   C651    1.426   .     S
C650   H413    1.079   .     S
C651   C652    1.394   .     D
C651   H414    1.074   .     S
C652   C653    1.394   .     S
C652   C1023   1.519   .     S
C653   C654    1.427   .     D
C653   H415    1.074   .     S
C654   H416    1.078   .     S
C655   C656    1.427   .     S
C655   C660    1.379   .     D
C655   H417    1.079   .     S
C656   C657    1.394   .     D
C656   H418    1.074   .     S
C657   C658    1.393   .     S
C657   C1117   1.518   .     S
C658   C659    1.427   .     D
C658   H419    1.074   .     S
C659   C660    1.378   .     S
C659   H420    1.079   .     S
C661   C662    1.393   1_554 S
C661   C666    1.394   .     D
C661   C1171   1.518   1_554 S
C662   C661    1.393   1_556 S
C662   C663    1.428   1_556 D
C662   H421    1.074   .     S
C663   C662    1.428   1_554 D
C663   C664    1.378   .     S
C663   H422    1.079   1_554 S
C664   C665    1.379   .     D
C664   C673    1.580   .     S
C665   C666    1.426   .     S
C665   H423    1.080   .     S
C666   H424    1.074   .     S
H422   C663    1.079   1_556 S
C667   C668    1.378   .     S
C667   C672    1.427   .     D
C667   H425    1.079   .     S
C668   C669    1.379   .     D
C668   C673    1.580   .     S
C669   C670    1.427   .     S
C669   H426    1.079   .     S
C670   C671    1.394   .     D
C670   H427    1.074   .     S
C671   C672    1.394   .     S
C671   C1004   1.519   1_554 S
C672   H428    1.074   1_554 S
C673   C674    1.580   .     S
C673   C685    1.589   .     S
C674   C675    1.379   .     S
C674   C679    1.379   .     D
C675   C676    1.427   .     D
C675   H429    1.079   .     S
C676   C677    1.394   .     S
C676   H430    1.074   .     S
C677   C437    1.518   1_554 S
C677   C678    1.393   1_554 D
C678   C677    1.393   1_556 D
C678   C679    1.427   1_556 S
C678   H431    1.074   .     S
C679   C678    1.427   1_554 S
C679   H432    1.079   1_554 S
C680   C681    1.437   .     D
C680   C685    1.372   .     S
C680   H433    1.076   .     S
C681   C682    1.372   .     S
C681   H434    1.076   .     S
C682   C683    1.372   .     D
C682   C686    1.590   .     S
C683   C684    1.436   .     S
C683   H435    1.077   .     S
C684   C685    1.373   .     D
C684   H436    1.077   .     S
C686   C690    1.580   .     S
C686   C693    1.580   .     S
C686   C704    1.580   .     S
C687   C688    1.394   .     S
C687   C692    1.394   .     D
C687   C793    1.518   .     S
C688   C689    1.427   .     D
C688   H437    1.073   .     S
C689   C690    1.378   .     S
C689   H438    1.079   .     S
C690   C691    1.379   .     D
C691   C692    1.427   .     S
C691   H439    1.079   .     S
C692   H440    1.074   .     S
C693   C694    1.379   .     D
C693   C698    1.378   .     S
C694   C695    1.426   .     S
C694   H441    1.079   .     S
C695   C696    1.394   .     D
C695   H442    1.074   .     S
C696   C697    1.394   .     S
C697   C698    1.427   .     D
C697   H443    1.074   .     S
C698   H444    1.078   .     S
C699   C700    1.426   .     D
C699   C704    1.379   .     S
C699   H445    1.079   .     S
C700   C701    1.395   .     S
C700   H446    1.074   .     S
C701   C702    1.394   .     D
C702   C703    1.427   .     S
C702   H447    1.074   .     S
C703   C704    1.378   .     D
C703   H448    1.079   .     S
H428   C672    1.074   1_556 S
H432   C679    1.079   1_556 S
C705   C706    1.393   .     S
C705   C710    1.394   .     D
C705   C2139   1.518   1_545 S
C706   C707    1.427   .     D
C706   H449    1.074   .     S
C707   C708    1.379   .     S
C707   H450    1.079   .     S
C708   C709    1.379   .     D
C708   C717    1.580   .     S
C709   C710    1.426   .     S
C709   H451    1.079   .     S
C710   H452    1.074   .     S
C711   C712    1.378   .     S
C711   C716    1.427   .     D
C711   H453    1.079   .     S
C712   C713    1.379   .     D
C712   C717    1.580   .     S
C713   C714    1.426   .     S
C713   H454    1.080   .     S
C714   C715    1.394   .     D
C714   H455    1.074   .     S
C715   C716    1.394   .     S
C715   C784    1.518   .     S
C716   H456    1.073   .     S
C717   C718    1.580   .     S
C717   C729    1.590   .     S
C718   C719    1.378   .     D
C718   C723    1.379   .     S
C719   C720    1.428   .     S
C719   H457    1.079   .     S
C720   C721    1.394   .     D
C720   H458    1.073   .     S
C721   C85     1.518   1_655 S
C721   C722    1.394   .     S
C722   C723    1.427   .     D
C722   H459    1.074   .     S
C723   H460    1.079   .     S
C724   C725    1.437   .     S
C724   C729    1.372   .     D
C724   H461    1.076   .     S
C725   C726    1.373   .     D
C725   H462    1.076   .     S
C726   C727    1.373   .     S
C726   C730    1.590   .     S
C727   C728    1.436   .     D
C727   H463    1.077   .     S
C728   C729    1.373   .     S
C728   H464    1.077   .     S
C730   C734    1.579   .     S
C730   C737    1.580   .     S
C730   C748    1.580   .     S
C731   C732    1.394   .     D
C731   C736    1.394   .     S
C731   C2421   1.519   1_545 S
C732   C733    1.427   .     S
C732   H465    1.073   .     S
C733   C734    1.379   .     D
C733   H466    1.079   .     S
C734   C735    1.379   .     S
C735   C736    1.426   .     D
C735   H467    1.079   .     S
C736   H468    1.074   .     S
C737   C738    1.378   .     D
C737   C742    1.379   .     S
C738   C739    1.427   .     S
C738   H469    1.079   .     S
C739   C740    1.394   .     D
C739   H470    1.074   .     S
C740   C741    1.394   .     S
C740   C1111   1.518   .     S
C741   C742    1.427   .     D
C741   H471    1.074   .     S
C742   H472    1.078   .     S
C743   C744    1.427   .     D
C743   C748    1.379   .     S
C743   H473    1.079   .     S
C744   C745    1.393   .     S
C744   H474    1.074   .     S
C745   C369    1.519   1_655 S
C745   C746    1.394   .     D
C746   C747    1.427   .     S
C746   H475    1.074   .     S
C747   C748    1.379   .     D
C747   H476    1.079   .     S
C749   C750    1.393   1_554 S
C749   C754    1.394   .     D
C749   C1259   1.518   1_554 S
C750   C749    1.393   1_556 S
C750   C751    1.427   1_556 D
C750   H477    1.074   .     S
C751   C750    1.427   1_554 D
C751   C752    1.378   .     S
C751   H478    1.079   1_554 S
C752   C753    1.379   .     D
C752   C761    1.580   .     S
C753   C754    1.426   .     S
C753   H479    1.080   .     S
C754   H480    1.074   .     S
H478   C751    1.079   1_556 S
C755   C756    1.378   .     S
C755   C760    1.427   .     D
C755   H481    1.078   .     S
C756   C757    1.379   .     D
C756   C761    1.580   .     S
C757   C758    1.427   .     S
C757   H482    1.079   .     S
C758   C759    1.394   .     D
C758   H483    1.074   .     S
C759   C760    1.394   .     S
C759   C1092   1.518   1_554 S
C760   H484    1.074   1_554 S
C761   C762    1.580   .     S
C761   C773    1.590   .     S
C762   C763    1.379   .     D
C762   C767    1.379   .     S
C763   C764    1.427   .     S
C763   H485    1.079   .     S
C764   C765    1.394   .     D
C764   H486    1.074   .     S
C765   C766    1.394   1_554 S
C765   C1009   1.518   1_554 S
C766   C765    1.394   1_556 S
C766   C767    1.427   1_556 D
C766   H487    1.074   .     S
C767   C766    1.427   1_554 D
C767   H488    1.079   1_554 S
C768   C769    1.437   .     D
C768   C773    1.372   .     S
C768   H489    1.076   .     S
C769   C770    1.372   .     S
C769   H490    1.076   .     S
C770   C771    1.373   .     D
C770   C774    1.590   .     S
C771   C772    1.436   .     S
C771   H491    1.076   .     S
C772   C773    1.373   .     D
C772   H492    1.077   .     S
C774   C778    1.580   .     S
C774   C781    1.579   .     S
C774   C792    1.580   .     S
C775   C776    1.394   .     S
C775   C780    1.393   .     D
C775   C881    1.518   .     S
C776   C777    1.427   .     D
C776   H493    1.074   .     S
C777   C778    1.378   .     S
C777   H494    1.079   .     S
C778   C779    1.379   .     D
C779   C780    1.427   .     S
C779   H495    1.079   .     S
C780   H496    1.074   .     S
C781   C782    1.379   .     D
C781   C786    1.379   .     S
C782   C783    1.427   .     S
C782   H497    1.079   .     S
C783   C784    1.393   .     D
C783   H498    1.074   .     S
C784   C785    1.394   .     S
C785   C786    1.427   .     D
C785   H499    1.074   .     S
C786   H500    1.078   .     S
C787   C788    1.426   .     D
C787   C792    1.379   .     S
C787   H501    1.080   .     S
C788   C789    1.394   .     S
C788   H502    1.074   .     S
C789   C790    1.394   .     D
C790   C791    1.427   .     S
C790   H503    1.074   .     S
C791   C792    1.379   .     D
C791   H504    1.079   .     S
H484   C760    1.074   1_556 S
H488   C767    1.079   1_556 S
C793   C794    1.394   .     S
C793   C798    1.394   .     D
C794   C795    1.427   .     D
C794   H505    1.074   .     S
C795   C796    1.378   .     S
C795   H506    1.078   .     S
C796   C797    1.379   .     D
C796   C805    1.580   .     S
C797   C798    1.427   .     S
C797   H507    1.079   .     S
C798   H508    1.074   .     S
C799   C800    1.379   .     S
C799   C804    1.427   .     D
C799   H509    1.079   .     S
C800   C801    1.379   .     D
C800   C805    1.579   .     S
C801   C802    1.427   .     S
C801   H510    1.079   .     S
C802   C803    1.394   .     D
C802   H511    1.074   .     S
C803   C804    1.394   .     S
C803   C872    1.518   .     S
C804   H512    1.074   .     S
C805   C806    1.580   .     S
C805   C817    1.590   .     S
C806   C807    1.379   .     D
C806   C811    1.379   .     S
C807   C808    1.427   .     S
C807   H513    1.079   .     S
C808   C809    1.394   .     D
C808   H514    1.073   .     S
C809   C810    1.394   .     S
C809   C965    1.518   .     S
C810   C811    1.427   .     D
C810   H515    1.074   .     S
C811   H516    1.079   .     S
C812   C813    1.437   .     S
C812   C817    1.372   .     D
C812   H517    1.076   .     S
C813   C814    1.372   .     D
C813   H518    1.076   .     S
C814   C815    1.373   .     S
C814   C818    1.590   .     S
C815   C816    1.436   .     D
C815   H519    1.077   .     S
C816   C817    1.373   .     S
C816   H520    1.077   .     S
C818   C822    1.579   .     S
C818   C825    1.580   .     S
C818   C836    1.579   .     S
C819   C820    1.394   .     D
C819   C824    1.394   .     S
C819   C1013   1.518   .     S
C820   C821    1.427   .     S
C820   H521    1.073   .     S
C821   C822    1.379   .     D
C821   H522    1.079   .     S
C822   C823    1.379   .     S
C823   C824    1.427   .     D
C823   H523    1.080   .     S
C824   H524    1.074   .     S
C825   C826    1.379   .     D
C825   C830    1.379   .     S
C826   C827    1.427   .     S
C826   H525    1.079   .     S
C827   C828    1.394   .     D
C827   H526    1.074   .     S
C828   C829    1.394   .     S
C828   C1199   1.519   .     S
C829   C830    1.427   .     D
C829   H527    1.074   .     S
C830   H528    1.078   .     S
C831   C832    1.426   .     S
C831   C836    1.379   .     D
C831   H529    1.080   .     S
C832   C833    1.394   .     D
C832   H530    1.074   .     S
C833   C834    1.394   .     S
C833   C1293   1.519   .     S
C834   C835    1.427   .     D
C834   H531    1.074   .     S
C835   C836    1.378   .     S
C835   H532    1.079   .     S
C837   C838    1.394   1_554 S
C837   C842    1.394   .     D
C837   C2183   1.518   1_554 S
C838   C837    1.394   1_556 S
C838   C839    1.427   1_556 D
C838   H533    1.074   .     S
C839   C838    1.427   1_554 D
C839   C840    1.378   .     S
C839   H534    1.079   1_554 S
C840   C841    1.379   .     D
C840   C849    1.580   .     S
C841   C842    1.427   .     S
C841   H535    1.079   .     S
C842   H536    1.074   .     S
H534   C839    1.079   1_556 S
C843   C844    1.378   .     S
C843   C848    1.427   .     D
C843   H537    1.078   .     S
C844   C845    1.379   .     D
C844   C849    1.580   .     S
C845   C846    1.427   .     S
C845   H538    1.079   .     S
C846   C847    1.394   .     D
C846   H539    1.074   .     S
C847   C848    1.394   .     S
C847   C1180   1.518   1_554 S
C848   H540    1.074   1_554 S
C849   C850    1.579   .     S
C849   C861    1.590   .     S
C850   C851    1.379   .     S
C850   C855    1.379   .     D
C851   C852    1.427   .     D
C851   H541    1.079   .     S
C852   C853    1.394   .     S
C852   H542    1.074   .     S
C853   C613    1.518   1_554 S
C853   C854    1.394   1_554 D
C854   C853    1.394   1_556 D
C854   C855    1.427   1_556 S
C854   H543    1.074   .     S
C855   C854    1.427   1_554 S
C855   H544    1.079   1_554 S
C856   C857    1.437   .     D
C856   C861    1.372   .     S
C856   H545    1.076   .     S
C857   C858    1.372   .     S
C857   H546    1.076   .     S
C858   C859    1.373   .     D
C858   C862    1.590   .     S
C859   C860    1.436   .     S
C859   H547    1.077   .     S
C860   C861    1.373   .     D
C860   H548    1.077   .     S
C862   C866    1.580   .     S
C862   C869    1.579   .     S
C862   C880    1.580   .     S
C863   C864    1.394   .     S
C863   C868    1.394   .     D
C863   C1849   1.518   .     S
C864   C865    1.427   .     D
C864   H549    1.074   .     S
C865   C866    1.378   .     S
C865   H550    1.079   .     S
C866   C867    1.379   .     D
C867   C868    1.427   .     S
C867   H551    1.079   .     S
C868   H552    1.074   .     S
C869   C870    1.379   .     D
C869   C874    1.379   .     S
C870   C871    1.426   .     S
C870   H553    1.080   .     S
C871   C872    1.394   .     D
C871   H554    1.074   .     S
C872   C873    1.394   .     S
C873   C874    1.426   .     D
C873   H555    1.074   .     S
C874   H556    1.079   .     S
C875   C876    1.426   .     D
C875   C880    1.379   .     S
C875   H557    1.079   .     S
C876   C877    1.395   .     S
C876   H558    1.073   .     S
C877   C878    1.394   .     D
C878   C879    1.428   .     S
C878   H559    1.074   .     S
C879   C880    1.378   .     D
C879   H560    1.079   .     S
H540   C848    1.074   1_556 S
H544   C855    1.079   1_556 S
C881   C882    1.394   .     S
C881   C886    1.394   .     D
C882   C883    1.427   .     D
C882   H561    1.074   .     S
C883   C884    1.379   .     S
C883   H562    1.079   .     S
C884   C885    1.379   .     D
C884   C893    1.579   .     S
C885   C886    1.427   .     S
C885   H563    1.080   .     S
C886   H564    1.074   .     S
C887   C888    1.378   .     S
C887   C892    1.428   .     D
C887   H565    1.078   .     S
C888   C889    1.379   .     D
C888   C893    1.580   .     S
C889   C890    1.427   .     S
C889   H566    1.079   .     S
C890   C891    1.394   .     D
C890   H567    1.074   .     S
C891   C892    1.393   .     S
C891   C960    1.519   .     S
C892   H568    1.073   .     S
C893   C894    1.581   .     S
C893   C905    1.589   .     S
C894   C895    1.378   .     D
C894   C899    1.379   .     S
C895   C896    1.427   .     S
C895   H569    1.079   .     S
C896   C897    1.394   .     D
C896   H570    1.074   .     S
C897   C261    1.519   1_655 S
C897   C898    1.394   .     S
C898   C899    1.427   .     D
C898   H571    1.074   .     S
C899   H572    1.079   .     S
C900   C901    1.437   .     S
C900   C905    1.372   .     D
C900   H573    1.076   .     S
C901   C902    1.372   .     D
C901   H574    1.076   .     S
C902   C903    1.373   .     S
C902   C906    1.590   .     S
C903   C904    1.436   .     D
C903   H575    1.077   .     S
C904   C905    1.373   .     S
C904   H576    1.077   .     S
C906   C910    1.579   .     S
C906   C913    1.580   .     S
C906   C924    1.579   .     S
C907   C908    1.394   .     D
C907   C912    1.394   .     S
C907   C1101   1.518   .     S
C908   C909    1.427   .     S
C908   H577    1.074   .     S
C909   C910    1.379   .     D
C909   H578    1.079   .     S
C910   C911    1.379   .     S
C911   C912    1.427   .     D
C911   H579    1.079   .     S
C912   H580    1.074   .     S
C913   C914    1.379   .     D
C913   C918    1.379   .     S
C914   C915    1.427   .     S
C914   H581    1.079   .     S
C915   C916    1.394   .     D
C915   H582    1.074   .     S
C916   C917    1.394   .     S
C916   C1287   1.518   .     S
C917   C918    1.427   .     D
C917   H583    1.073   .     S
C918   H584    1.078   .     S
C919   C920    1.427   .     D
C919   C924    1.379   .     S
C919   H585    1.079   .     S
C920   C921    1.394   .     S
C920   H586    1.074   .     S
C921   C545    1.518   1_655 S
C921   C922    1.394   .     D
C922   C923    1.427   .     S
C922   H587    1.074   .     S
C923   C924    1.379   .     D
C923   H588    1.079   .     S
C925   C926    1.394   1_554 S
C925   C930    1.394   .     D
C925   C2227   1.518   1_554 S
C926   C925    1.394   1_556 S
C926   C927    1.427   1_556 D
C926   H589    1.073   .     S
C927   C926    1.427   1_554 D
C927   C928    1.379   .     S
C927   H590    1.079   1_554 S
C928   C929    1.379   .     D
C928   C937    1.579   .     S
C929   C930    1.426   .     S
C929   H591    1.079   .     S
C930   H592    1.074   .     S
H590   C927    1.079   1_556 S
C931   C932    1.378   .     S
C931   C936    1.427   .     D
C931   H593    1.078   .     S
C932   C933    1.378   .     D
C932   C937    1.581   .     S
C933   C934    1.427   .     S
C933   H594    1.080   .     S
C934   C935    1.394   .     D
C934   H595    1.074   .     S
C935   C936    1.394   .     S
C935   C1268   1.518   1_554 S
C936   H596    1.074   1_554 S
C937   C938    1.580   .     S
C937   C949    1.590   .     S
C938   C939    1.379   .     D
C938   C943    1.379   .     S
C939   C940    1.427   .     S
C939   H597    1.079   .     S
C940   C941    1.394   .     D
C940   H598    1.074   .     S
C941   C942    1.394   1_554 S
C941   C1185   1.519   1_554 S
C942   C941    1.394   1_556 S
C942   C943    1.427   1_556 D
C942   H599    1.074   .     S
C943   C942    1.427   1_554 D
C943   H600    1.079   1_554 S
C944   C945    1.437   .     D
C944   C949    1.372   .     S
C944   H601    1.076   .     S
C945   C946    1.372   .     S
C945   H602    1.076   .     S
C946   C947    1.373   .     D
C946   C950    1.590   .     S
C947   C948    1.436   .     S
C947   H603    1.077   .     S
C948   C949    1.373   .     D
C948   H604    1.077   .     S
C950   C954    1.579   .     S
C950   C957    1.579   .     S
C950   C968    1.580   .     S
C951   C952    1.393   .     S
C951   C956    1.394   .     D
C951   C1893   1.518   .     S
C952   C953    1.427   .     D
C952   H605    1.074   .     S
C953   C954    1.379   .     S
C953   H606    1.079   .     S
C954   C955    1.379   .     D
C955   C956    1.426   .     S
C955   H607    1.079   .     S
C956   H608    1.074   .     S
C957   C958    1.379   .     D
C957   C962    1.378   .     S
C958   C959    1.427   .     S
C958   H609    1.079   .     S
C959   C960    1.394   .     D
C959   H610    1.074   .     S
C960   C961    1.393   .     S
C961   C962    1.427   .     D
C961   H611    1.074   .     S
C962   H612    1.079   .     S
C963   C964    1.427   .     D
C963   C968    1.379   .     S
C963   H613    1.079   .     S
C964   C965    1.394   .     S
C964   H614    1.074   .     S
C965   C966    1.394   .     D
C966   C967    1.427   .     S
C966   H615    1.074   .     S
C967   C968    1.379   .     D
C967   H616    1.079   .     S
H596   C936    1.074   1_556 S
H600   C943    1.079   1_556 S
C969   C970    1.394   .     D
C969   C974    1.394   .     S
C969   C2359   1.518   1_545 S
C970   C971    1.427   .     S
C970   H617    1.074   .     S
C971   C972    1.379   .     D
C971   H618    1.079   .     S
C972   C973    1.379   .     S
C972   C981    1.580   .     S
C973   C974    1.427   .     D
C973   H619    1.079   .     S
C974   H620    1.074   .     S
C975   C976    1.378   .     S
C975   C980    1.427   .     D
C975   H621    1.078   .     S
C976   C977    1.379   .     D
C976   C981    1.579   .     S
C977   C978    1.427   .     S
C977   H622    1.079   .     S
C978   C979    1.394   .     D
C978   H623    1.074   .     S
C979   C980    1.393   .     S
C979   C1048   1.518   .     S
C980   H624    1.074   .     S
C981   C982    1.580   .     S
C981   C993    1.590   .     S
C982   C983    1.379   .     D
C982   C987    1.379   .     S
C983   C984    1.427   .     S
C983   H625    1.079   .     S
C984   C985    1.393   .     D
C984   H626    1.074   .     S
C985   C986    1.394   .     S
C985   C1141   1.519   .     S
C986   C987    1.426   .     D
C986   H627    1.074   .     S
C987   H628    1.080   .     S
C988   C989    1.437   .     S
C988   C993    1.373   .     D
C988   H629    1.077   .     S
C989   C990    1.373   .     D
C989   H630    1.076   .     S
C990   C991    1.373   .     S
C990   C994    1.590   .     S
C991   C992    1.436   .     D
C991   H631    1.077   .     S
C992   C993    1.372   .     S
C992   H632    1.077   .     S
C994   C998    1.579   .     S
C994   C1001   1.580   .     S
C994   C1012   1.580   .     S
C995   C996    1.394   1_556 D
C995   C1000   1.393   .     S
C995   C2025   1.518   1_546 S
C996   C995    1.394   1_554 D
C996   C997    1.427   1_554 S
C996   H633    1.074   .     S
C997   C996    1.427   1_556 S
C997   C998    1.379   .     D
C997   H634    1.079   1_556 S
C998   C999    1.379   .     S
C999   C1000   1.427   .     D
C999   H635    1.079   .     S
C1000  H636    1.074   .     S
C1001  C1002   1.379   .     S
C1001  C1006   1.379   .     D
C1002  C1003   1.426   .     D
C1002  H637    1.079   .     S
C1003  C1004   1.394   .     S
C1003  H638    1.074   .     S
C1004  C671    1.519   1_556 S
C1004  C1005   1.394   .     D
C1005  C1006   1.427   .     S
C1005  H639    1.074   .     S
C1006  H640    1.078   .     S
C1007  C1008   1.427   1_556 D
C1007  C1012   1.379   .     S
C1007  H641    1.079   1_556 S
C1008  C1007   1.427   1_554 D
C1008  C1009   1.394   1_554 S
C1008  H642    1.074   .     S
C1009  C1008   1.394   1_556 S
C1009  C765    1.518   1_556 S
C1009  C1010   1.393   .     D
C1010  C1011   1.427   .     S
C1010  H643    1.074   .     S
C1011  C1012   1.378   .     D
C1011  H644    1.079   .     S
H634   C997    1.079   1_554 S
H641   C1007   1.079   1_554 S
C1013  C1014   1.393   .     S
C1013  C1018   1.394   .     D
C1014  C1015   1.428   .     D
C1014  H645    1.074   .     S
C1015  C1016   1.378   .     S
C1015  H646    1.079   .     S
C1016  C1017   1.379   .     D
C1016  C1025   1.580   .     S
C1017  C1018   1.426   .     S
C1017  H647    1.080   .     S
C1018  H648    1.073   .     S
C1019  C1020   1.378   .     D
C1019  C1024   1.427   .     S
C1019  H649    1.079   .     S
C1020  C1021   1.379   .     S
C1020  C1025   1.580   .     S
C1021  C1022   1.427   .     D
C1021  H650    1.079   .     S
C1022  C1023   1.394   .     S
C1022  H651    1.074   .     S
C1023  C1024   1.394   .     D
C1024  H652    1.073   .     S
C1025  C1026   1.580   .     S
C1025  C1037   1.590   .     S
C1026  C1027   1.379   .     S
C1026  C1031   1.379   .     D
C1027  C1028   1.427   .     D
C1027  H653    1.079   .     S
C1028  C1029   1.394   .     S
C1028  H654    1.074   .     S
C1029  C1030   1.393   .     D
C1030  C1031   1.427   .     S
C1030  H655    1.074   .     S
C1031  H656    1.079   .     S
C1032  C1033   1.437   .     D
C1032  C1037   1.372   .     S
C1032  H657    1.076   .     S
C1033  C1034   1.372   .     S
C1033  H658    1.076   .     S
C1034  C1035   1.373   .     D
C1034  C1038   1.589   .     S
C1035  C1036   1.436   .     S
C1035  H659    1.077   .     S
C1036  C1037   1.373   .     D
C1036  H660    1.077   .     S
C1038  C1042   1.580   .     S
C1038  C1045   1.580   .     S
C1038  C1056   1.580   .     S
C1039  C1040   1.394   .     S
C1039  C1044   1.394   .     D
C1039  C1145   1.518   .     S
C1040  C1041   1.427   .     D
C1040  H661    1.073   .     S
C1041  C1042   1.378   .     S
C1041  H662    1.079   .     S
C1042  C1043   1.379   .     D
C1043  C1044   1.427   .     S
C1043  H663    1.079   .     S
C1044  H664    1.074   .     S
C1045  C1046   1.379   .     S
C1045  C1050   1.379   .     D
C1046  C1047   1.426   .     D
C1046  H665    1.079   .     S
C1047  C1048   1.394   .     S
C1047  H666    1.074   .     S
C1048  C1049   1.394   .     D
C1049  C1050   1.427   .     S
C1049  H667    1.074   .     S
C1050  H668    1.078   .     S
C1051  C1052   1.426   .     S
C1051  C1056   1.379   .     D
C1051  H669    1.079   .     S
C1052  C1053   1.394   .     D
C1052  H670    1.074   .     S
C1053  C1054   1.394   .     S
C1054  C1055   1.427   .     D
C1054  H671    1.074   .     S
C1055  C1056   1.378   .     S
C1055  H672    1.079   .     S
C1057  C1058   1.393   .     D
C1057  C1062   1.394   .     S
C1057  C2447   1.518   1_545 S
C1058  C1059   1.427   .     S
C1058  H673    1.074   .     S
C1059  C1060   1.379   .     D
C1059  H674    1.079   .     S
C1060  C1061   1.379   .     S
C1060  C1069   1.579   .     S
C1061  C1062   1.426   .     D
C1061  H675    1.079   .     S
C1062  H676    1.074   .     S
C1063  C1064   1.378   .     S
C1063  C1068   1.427   .     D
C1063  H677    1.079   .     S
C1064  C1065   1.379   .     D
C1064  C1069   1.580   .     S
C1065  C1066   1.427   .     S
C1065  H678    1.079   .     S
C1066  C1067   1.394   .     D
C1066  H679    1.074   .     S
C1067  C1068   1.394   .     S
C1067  C1136   1.518   .     S
C1068  H680    1.073   .     S
C1069  C1070   1.580   .     S
C1069  C1081   1.589   .     S
C1070  C1071   1.378   .     D
C1070  C1075   1.379   .     S
C1071  C1072   1.428   .     S
C1071  H681    1.078   .     S
C1072  C1073   1.394   .     D
C1072  H682    1.073   .     S
C1073  C393    1.518   1_655 S
C1073  C1074   1.394   .     S
C1074  C1075   1.427   .     D
C1074  H683    1.074   .     S
C1075  H684    1.079   .     S
C1076  C1077   1.437   .     S
C1076  C1081   1.372   .     D
C1076  H685    1.076   .     S
C1077  C1078   1.372   .     D
C1077  H686    1.077   .     S
C1078  C1079   1.374   .     S
C1078  C1082   1.590   .     S
C1079  C1080   1.436   .     D
C1079  H687    1.077   .     S
C1080  C1081   1.373   .     S
C1080  H688    1.077   .     S
C1082  C1086   1.579   .     S
C1082  C1089   1.580   .     S
C1082  C1100   1.580   .     S
C1083  C1084   1.394   1_556 D
C1083  C1088   1.394   .     S
C1083  C2113   1.519   1_546 S
C1084  C1083   1.394   1_554 D
C1084  C1085   1.427   1_554 S
C1084  H689    1.073   .     S
C1085  C1084   1.427   1_556 S
C1085  C1086   1.379   .     D
C1085  H690    1.079   1_556 S
C1086  C1087   1.379   .     S
C1087  C1088   1.426   .     D
C1087  H691    1.079   .     S
C1088  H692    1.074   .     S
C1089  C1090   1.379   .     S
C1089  C1094   1.379   .     D
C1090  C1091   1.427   .     D
C1090  H693    1.079   .     S
C1091  C1092   1.394   .     S
C1091  H694    1.074   .     S
C1092  C759    1.518   1_556 S
C1092  C1093   1.394   .     D
C1093  C1094   1.427   .     S
C1093  H695    1.074   .     S
C1094  H696    1.078   .     S
C1095  C1096   1.427   1_556 D
C1095  C1100   1.379   .     S
C1095  H697    1.079   1_556 S
C1096  C1095   1.427   1_554 D
C1096  C1097   1.393   1_554 S
C1096  H698    1.074   .     S
C1097  C1096   1.393   1_556 S
C1097  C61     1.519   1_656 S
C1097  C1098   1.394   .     D
C1098  C1099   1.427   .     S
C1098  H699    1.074   .     S
C1099  C1100   1.379   .     D
C1099  H700    1.079   .     S
H690   C1085   1.079   1_554 S
H697   C1095   1.079   1_554 S
C1101  C1102   1.393   .     S
C1101  C1106   1.394   .     D
C1102  C1103   1.427   .     D
C1102  H701    1.074   .     S
C1103  C1104   1.378   .     S
C1103  H702    1.079   .     S
C1104  C1105   1.379   .     D
C1104  C1113   1.580   .     S
C1105  C1106   1.426   .     S
C1105  H703    1.080   .     S
C1106  H704    1.074   .     S
C1107  C1108   1.378   .     D
C1107  C1112   1.428   .     S
C1107  H705    1.078   .     S
C1108  C1109   1.379   .     S
C1108  C1113   1.580   .     S
C1109  C1110   1.427   .     D
C1109  H706    1.079   .     S
C1110  C1111   1.394   .     S
C1110  H707    1.074   .     S
C1111  C1112   1.394   .     D
C1112  H708    1.074   .     S
C1113  C1114   1.580   .     S
C1113  C1125   1.589   .     S
C1114  C1115   1.379   .     S
C1114  C1119   1.379   .     D
C1115  C1116   1.427   .     D
C1115  H709    1.079   .     S
C1116  C1117   1.394   .     S
C1116  H710    1.074   .     S
C1117  C1118   1.394   .     D
C1118  C1119   1.427   .     S
C1118  H711    1.074   .     S
C1119  H712    1.079   .     S
C1120  C1121   1.437   .     D
C1120  C1125   1.372   .     S
C1120  H713    1.075   .     S
C1121  C1122   1.372   .     S
C1121  H714    1.076   .     S
C1122  C1123   1.373   .     D
C1122  C1126   1.589   .     S
C1123  C1124   1.436   .     S
C1123  H715    1.076   .     S
C1124  C1125   1.373   .     D
C1124  H716    1.077   .     S
C1126  C1130   1.580   .     S
C1126  C1133   1.579   .     S
C1126  C1144   1.580   .     S
C1127  C1128   1.394   .     S
C1127  C1132   1.393   .     D
C1127  C1233   1.518   .     S
C1128  C1129   1.427   .     D
C1128  H717    1.074   .     S
C1129  C1130   1.378   .     S
C1129  H718    1.079   .     S
C1130  C1131   1.379   .     D
C1131  C1132   1.427   .     S
C1131  H719    1.079   .     S
C1132  H720    1.074   .     S
C1133  C1134   1.379   .     S
C1133  C1138   1.379   .     D
C1134  C1135   1.427   .     D
C1134  H721    1.079   .     S
C1135  C1136   1.393   .     S
C1135  H722    1.074   .     S
C1136  C1137   1.394   .     D
C1137  C1138   1.427   .     S
C1137  H723    1.074   .     S
C1138  H724    1.078   .     S
C1139  C1140   1.426   .     S
C1139  C1144   1.379   .     D
C1139  H725    1.080   .     S
C1140  C1141   1.394   .     D
C1140  H726    1.074   .     S
C1141  C1142   1.394   .     S
C1142  C1143   1.428   .     D
C1142  H727    1.074   .     S
C1143  C1144   1.378   .     S
C1143  H728    1.079   .     S
C1145  C1146   1.394   .     S
C1145  C1150   1.394   .     D
C1146  C1147   1.427   .     D
C1146  H729    1.074   .     S
C1147  C1148   1.378   .     S
C1147  H730    1.078   .     S
C1148  C1149   1.379   .     D
C1148  C1157   1.580   .     S
C1149  C1150   1.427   .     S
C1149  H731    1.079   .     S
C1150  H732    1.074   .     S
C1151  C1152   1.379   .     S
C1151  C1156   1.427   .     D
C1151  H733    1.079   .     S
C1152  C1153   1.379   .     D
C1152  C1157   1.579   .     S
C1153  C1154   1.427   .     S
C1153  H734    1.079   .     S
C1154  C1155   1.394   .     D
C1154  H735    1.074   .     S
C1155  C1156   1.394   .     S
C1155  C1224   1.518   .     S
C1156  H736    1.074   .     S
C1157  C1158   1.580   .     S
C1157  C1169   1.590   .     S
C1158  C1159   1.379   .     D
C1158  C1163   1.379   .     S
C1159  C1160   1.427   .     S
C1159  H737    1.079   .     S
C1160  C1161   1.394   .     D
C1160  H738    1.073   .     S
C1161  C1162   1.394   .     S
C1161  C1317   1.518   .     S
C1162  C1163   1.427   .     D
C1162  H739    1.074   .     S
C1163  H740    1.079   .     S
C1164  C1165   1.437   .     S
C1164  C1169   1.372   .     D
C1164  H741    1.076   .     S
C1165  C1166   1.372   .     D
C1165  H742    1.076   .     S
C1166  C1167   1.373   .     S
C1166  C1170   1.590   .     S
C1167  C1168   1.436   .     D
C1167  H743    1.077   .     S
C1168  C1169   1.373   .     S
C1168  H744    1.077   .     S
C1170  C1174   1.579   .     S
C1170  C1177   1.580   .     S
C1170  C1188   1.579   .     S
C1171  C661    1.518   1_556 S
C1171  C1172   1.394   1_556 S
C1171  C1176   1.394   .     D
C1172  C1171   1.394   1_554 S
C1172  C1173   1.427   1_554 D
C1172  H745    1.073   .     S
C1173  C1172   1.427   1_556 D
C1173  C1174   1.379   .     S
C1173  H746    1.079   1_556 S
C1174  C1175   1.379   .     D
C1175  C1176   1.426   .     S
C1175  H747    1.080   .     S
C1176  H748    1.074   .     S
C1177  C1178   1.379   .     S
C1177  C1182   1.379   .     D
C1178  C1179   1.427   .     D
C1178  H749    1.079   .     S
C1179  C1180   1.394   .     S
C1179  H750    1.074   .     S
C1180  C847    1.518   1_556 S
C1180  C1181   1.394   .     D
C1181  C1182   1.427   .     S
C1181  H751    1.074   .     S
C1182  H752    1.078   .     S
C1183  C1184   1.427   1_556 D
C1183  C1188   1.379   .     S
C1183  H753    1.080   1_556 S
C1184  C1183   1.427   1_554 D
C1184  C1185   1.394   1_554 S
C1184  H754    1.074   .     S
C1185  C1184   1.394   1_556 S
C1185  C941    1.519   1_556 S
C1185  C1186   1.394   .     D
C1186  C1187   1.427   .     S
C1186  H755    1.074   .     S
C1187  C1188   1.379   .     D
C1187  H756    1.079   .     S
H746   C1173   1.079   1_554 S
H753   C1183   1.080   1_554 S
C1189  C1190   1.394   .     S
C1189  C1194   1.395   .     D
C1189  C1875   1.518   .     S
C1190  C1191   1.427   .     D
C1190  H757    1.073   .     S
C1191  C1192   1.378   .     S
C1191  H758    1.079   .     S
C1192  C1193   1.379   .     D
C1192  C1201   1.580   .     S
C1193  C1194   1.427   .     S
C1193  H759    1.079   .     S
C1194  H760    1.074   .     S
C1195  C1196   1.378   .     D
C1195  C1200   1.427   .     S
C1195  H761    1.078   .     S
C1196  C1197   1.379   .     S
C1196  C1201   1.581   .     S
C1197  C1198   1.427   .     D
C1197  H762    1.080   .     S
C1198  C1199   1.394   .     S
C1198  H763    1.074   .     S
C1199  C1200   1.394   .     D
C1200  H764    1.073   .     S
C1201  C1202   1.579   .     S
C1201  C1213   1.589   .     S
C1202  C1203   1.379   .     S
C1202  C1207   1.379   .     D
C1203  C1204   1.427   .     D
C1203  H765    1.079   .     S
C1204  C1205   1.394   .     S
C1204  H766    1.074   .     S
C1205  C1206   1.394   .     D
C1206  C1207   1.427   .     S
C1206  H767    1.073   .     S
C1207  H768    1.080   .     S
C1208  C1209   1.437   .     D
C1208  C1213   1.372   .     S
C1208  H769    1.076   .     S
C1209  C1210   1.372   .     S
C1209  H770    1.076   .     S
C1210  C1211   1.373   .     D
C1210  C1214   1.590   .     S
C1211  C1212   1.436   .     S
C1211  H771    1.077   .     S
C1212  C1213   1.373   .     D
C1212  H772    1.077   .     S
C1214  C1218   1.580   .     S
C1214  C1221   1.579   .     S
C1214  C1232   1.580   .     S
C1215  C1216   1.394   .     S
C1215  C1220   1.394   .     D
C1215  C2157   1.518   .     S
C1216  C1217   1.427   .     D
C1216  H773    1.074   .     S
C1217  C1218   1.378   .     S
C1217  H774    1.079   .     S
C1218  C1219   1.379   .     D
C1219  C1220   1.426   .     S
C1219  H775    1.079   .     S
C1220  H776    1.074   .     S
C1221  C1222   1.379   .     S
C1221  C1226   1.379   .     D
C1222  C1223   1.426   .     D
C1222  H777    1.080   .     S
C1223  C1224   1.394   .     S
C1223  H778    1.074   .     S
C1224  C1225   1.394   .     D
C1225  C1226   1.427   .     S
C1225  H779    1.074   .     S
C1226  H780    1.079   .     S
C1227  C1228   1.426   .     S
C1227  C1232   1.379   .     D
C1227  H781    1.080   .     S
C1228  C1229   1.395   .     D
C1228  H782    1.073   .     S
C1229  C1230   1.394   .     S
C1230  C1231   1.427   .     D
C1230  H783    1.074   .     S
C1231  C1232   1.379   .     S
C1231  H784    1.079   .     S
C1233  C1234   1.394   .     S
C1233  C1238   1.394   .     D
C1234  C1235   1.427   .     D
C1234  H785    1.074   .     S
C1235  C1236   1.379   .     S
C1235  H786    1.079   .     S
C1236  C1237   1.379   .     D
C1236  C1245   1.579   .     S
C1237  C1238   1.427   .     S
C1237  H787    1.080   .     S
C1238  H788    1.074   .     S
C1239  C1240   1.378   .     S
C1239  C1244   1.428   .     D
C1239  H789    1.078   .     S
C1240  C1241   1.379   .     D
C1240  C1245   1.580   .     S
C1241  C1242   1.427   .     S
C1241  H790    1.079   .     S
C1242  C1243   1.394   .     D
C1242  H791    1.074   .     S
C1243  C1244   1.393   .     S
C1243  C1312   1.519   .     S
C1244  H792    1.073   .     S
C1245  C1246   1.580   .     S
C1245  C1257   1.589   .     S
C1246  C1247   1.379   .     D
C1246  C1251   1.379   .     S
C1247  C1248   1.427   .     S
C1247  H793    1.079   .     S
C1248  C1249   1.394   .     D
C1248  H794    1.074   .     S
C1249  C569    1.519   1_655 S
C1249  C1250   1.393   .     S
C1250  C1251   1.427   .     D
C1250  H795    1.074   .     S
C1251  H796    1.079   .     S
C1252  C1253   1.437   .     S
C1252  C1257   1.372   .     D
C1252  H797    1.076   .     S
C1253  C1254   1.372   .     D
C1253  H798    1.076   .     S
C1254  C1255   1.373   .     S
C1254  C1258   1.590   .     S
C1255  C1256   1.436   .     D
C1255  H799    1.077   .     S
C1256  C1257   1.373   .     S
C1256  H800    1.077   .     S
C1258  C1262   1.579   .     S
C1258  C1265   1.580   .     S
C1258  C1276   1.580   .     S
C1259  C749    1.518   1_556 S
C1259  C1260   1.394   1_556 S
C1259  C1264   1.394   .     D
C1260  C1259   1.394   1_554 S
C1260  C1261   1.427   1_554 D
C1260  H801    1.074   .     S
C1261  C1260   1.427   1_556 D
C1261  C1262   1.379   .     S
C1261  H802    1.079   1_556 S
C1262  C1263   1.379   .     D
C1263  C1264   1.427   .     S
C1263  H803    1.079   .     S
C1264  H804    1.074   .     S
C1265  C1266   1.379   .     S
C1265  C1270   1.379   .     D
C1266  C1267   1.427   .     D
C1266  H805    1.079   .     S
C1267  C1268   1.394   .     S
C1267  H806    1.074   .     S
C1268  C935    1.518   1_556 S
C1268  C1269   1.394   .     D
C1269  C1270   1.427   .     S
C1269  H807    1.073   .     S
C1270  H808    1.078   .     S
C1271  C1272   1.427   1_556 D
C1271  C1276   1.379   .     S
C1271  H809    1.079   1_556 S
C1272  C1271   1.427   1_554 D
C1272  C1273   1.394   1_554 S
C1272  H810    1.074   .     S
C1273  C1272   1.394   1_556 S
C1273  C237    1.518   1_656 S
C1273  C1274   1.394   .     D
C1274  C1275   1.427   .     S
C1274  H811    1.073   .     S
C1275  C1276   1.378   .     D
C1275  H812    1.079   .     S
H802   C1261   1.079   1_554 S
H809   C1271   1.079   1_554 S
C1277  C1278   1.394   .     S
C1277  C1282   1.394   .     D
C1277  C1919   1.518   .     S
C1278  C1279   1.427   .     D
C1278  H813    1.074   .     S
C1279  C1280   1.379   .     S
C1279  H814    1.079   .     S
C1280  C1281   1.379   .     D
C1280  C1289   1.579   .     S
C1281  C1282   1.426   .     S
C1281  H815    1.079   .     S
C1282  H816    1.074   .     S
C1283  C1284   1.378   .     D
C1283  C1288   1.427   .     S
C1283  H817    1.078   .     S
C1284  C1285   1.378   .     S
C1284  C1289   1.581   .     S
C1285  C1286   1.427   .     D
C1285  H818    1.080   .     S
C1286  C1287   1.394   .     S
C1286  H819    1.074   .     S
C1287  C1288   1.394   .     D
C1288  H820    1.074   .     S
C1289  C1290   1.580   .     S
C1289  C1301   1.590   .     S
C1290  C1291   1.379   .     S
C1290  C1295   1.379   .     D
C1291  C1292   1.427   .     D
C1291  H821    1.079   .     S
C1292  C1293   1.394   .     S
C1292  H822    1.074   .     S
C1293  C1294   1.394   .     D
C1294  C1295   1.427   .     S
C1294  H823    1.074   .     S
C1295  H824    1.079   .     S
C1296  C1297   1.437   .     D
C1296  C1301   1.372   .     S
C1296  H825    1.076   .     S
C1297  C1298   1.372   .     S
C1297  H826    1.076   .     S
C1298  C1299   1.373   .     D
C1298  C1302   1.590   .     S
C1299  C1300   1.436   .     S
C1299  H827    1.077   .     S
C1300  C1301   1.373   .     D
C1300  H828    1.077   .     S
C1302  C1306   1.579   .     S
C1302  C1309   1.579   .     S
C1302  C1320   1.580   .     S
C1303  C1304   1.393   .     S
C1303  C1308   1.394   .     D
C1303  C2201   1.518   .     S
C1304  C1305   1.427   .     D
C1304  H829    1.073   .     S
C1305  C1306   1.379   .     S
C1305  H830    1.079   .     S
C1306  C1307   1.379   .     D
C1307  C1308   1.426   .     S
C1307  H831    1.079   .     S
C1308  H832    1.074   .     S
C1309  C1310   1.379   .     S
C1309  C1314   1.378   .     D
C1310  C1311   1.427   .     D
C1310  H833    1.079   .     S
C1311  C1312   1.394   .     S
C1311  H834    1.074   .     S
C1312  C1313   1.393   .     D
C1313  C1314   1.427   .     S
C1313  H835    1.074   .     S
C1314  H836    1.079   .     S
C1315  C1316   1.427   .     S
C1315  C1320   1.379   .     D
C1315  H837    1.079   .     S
C1316  C1317   1.394   .     D
C1316  H838    1.074   .     S
C1317  C1318   1.394   .     S
C1318  C1319   1.427   .     D
C1318  H839    1.074   .     S
C1319  C1320   1.379   .     S
C1319  H840    1.079   .     S
C1321  C1322   1.394   .     S
C1321  C1326   1.395   .     D
C1322  C1323   1.427   .     D
C1322  H841    1.074   .     S
C1323  C1324   1.379   .     S
C1323  H842    1.079   .     S
C1324  C1325   1.379   .     D
C1324  C1333   1.577   .     S
C1325  C1326   1.426   .     S
C1325  H843    1.079   .     S
C1326  H844    1.074   .     S
C1327  C1328   1.379   .     D
C1327  C1332   1.427   .     S
C1327  H845    1.079   .     S
C1328  C1329   1.379   .     S
C1328  C1333   1.577   .     S
C1329  C1330   1.427   .     D
C1329  H846    1.079   .     S
C1330  C1331   1.394   .     S
C1330  H847    1.074   .     S
C1331  C1332   1.394   .     D
C1331  C1400   1.518   .     S
C1332  H848    1.074   .     S
C1333  C1334   1.589   .     S
C1333  C1345   1.587   .     S
C1334  C1335   1.372   .     D
C1334  C1339   1.372   .     S
C1335  C1336   1.438   .     S
C1335  H849    1.076   .     S
C1336  C1337   1.370   .     D
C1336  H850    1.077   .     S
C1337  C1338   1.370   .     S
C1337  H1585   1.071   .     S
C1338  C1339   1.437   .     D
C1338  H851    1.077   .     S
C1339  H852    1.077   .     S
C1340  C1341   1.436   .     S
C1340  C1345   1.372   .     D
C1340  H853    1.076   .     S
C1341  C1342   1.373   .     D
C1341  H854    1.076   .     S
C1342  C1343   1.374   .     S
C1342  C1346   1.587   .     S
C1343  C1344   1.435   .     D
C1343  H855    1.077   .     S
C1344  C1345   1.374   .     S
C1344  H856    1.077   .     S
C1346  C1350   1.577   .     S
C1346  C1353   1.577   .     S
C1346  C1364   1.589   .     S
C1347  C1348   1.394   .     S
C1347  C1352   1.394   .     D
C1348  C1349   1.426   .     D
C1348  H857    1.074   .     S
C1349  C1350   1.379   .     S
C1349  H858    1.078   .     S
C1350  C1351   1.380   .     D
C1351  C1352   1.426   .     S
C1351  H859    1.079   .     S
C1352  H860    1.074   .     S
C1353  C1354   1.380   .     D
C1353  C1358   1.380   .     S
C1354  C1355   1.427   .     S
C1354  H861    1.080   .     S
C1355  C1356   1.393   .     D
C1355  H862    1.074   .     S
C1356  C1357   1.394   .     S
C1356  C1639   1.519   .     S
C1357  C1358   1.427   .     D
C1357  H863    1.074   .     S
C1358  H864    1.078   .     S
C1359  C1360   1.437   .     D
C1359  C1364   1.373   .     S
C1359  H865    1.077   .     S
C1360  C1361   1.370   .     S
C1360  H866    1.077   .     S
C1361  C1362   1.370   .     D
C1361  H1573   1.072   .     S
C1362  C1363   1.438   .     S
C1362  H867    1.077   .     S
C1363  C1364   1.372   .     D
C1363  H868    1.076   .     S
C1365  C1366   1.393   1_554 S
C1365  C1370   1.394   .     D
C1365  C1699   1.518   1_554 S
C1366  C1365   1.393   1_556 S
C1366  C1367   1.427   1_556 D
C1366  H869    1.074   .     S
C1367  C1366   1.427   1_554 D
C1367  C1368   1.378   .     S
C1367  H870    1.078   1_554 S
C1368  C1369   1.379   .     D
C1368  C1377   1.580   .     S
C1369  C1370   1.426   .     S
C1369  H871    1.080   .     S
C1370  H872    1.074   .     S
H870   C1367   1.078   1_556 S
C1371  C1372   1.379   .     S
C1371  C1376   1.427   .     D
C1371  H873    1.078   .     S
C1372  C1373   1.379   .     D
C1372  C1377   1.579   .     S
C1373  C1374   1.427   .     S
C1373  H874    1.080   .     S
C1374  C1375   1.394   .     D
C1374  H875    1.074   .     S
C1375  C1376   1.394   .     S
C1375  C1620   1.518   1_554 S
C1376  H876    1.074   1_554 S
C1377  C1378   1.580   .     S
C1377  C1389   1.589   .     S
C1378  C1379   1.379   .     D
C1378  C1383   1.379   .     S
C1379  C1380   1.427   .     S
C1379  H877    1.079   .     S
C1380  C1381   1.394   .     D
C1380  H878    1.074   .     S
C1381  C1382   1.394   1_554 S
C1381  C2241   1.518   1_454 S
C1382  C1381   1.394   1_556 S
C1382  C1383   1.427   1_556 D
C1382  H879    1.074   .     S
C1383  C1382   1.427   1_554 D
C1383  H880    1.080   1_554 S
C1384  C1385   1.437   .     D
C1384  C1389   1.372   .     S
C1384  H881    1.076   .     S
C1385  C1386   1.372   .     S
C1385  H882    1.076   .     S
C1386  C1387   1.373   .     D
C1386  C1390   1.590   .     S
C1387  C1388   1.436   .     S
C1387  H883    1.077   .     S
C1388  C1389   1.373   .     D
C1388  H884    1.077   .     S
C1390  C1394   1.580   .     S
C1390  C1397   1.580   .     S
C1390  C1408   1.580   .     S
C1391  C1392   1.394   .     S
C1391  C1396   1.394   .     D
C1391  C1409   1.518   .     S
C1392  C1393   1.427   .     D
C1392  H885    1.074   .     S
C1393  C1394   1.378   .     S
C1393  H886    1.079   .     S
C1394  C1395   1.379   .     D
C1395  C1396   1.427   .     S
C1395  H887    1.079   .     S
C1396  H888    1.074   .     S
C1397  C1398   1.379   .     D
C1397  C1402   1.379   .     S
C1398  C1399   1.427   .     S
C1398  H889    1.079   .     S
C1399  C1400   1.394   .     D
C1399  H890    1.074   .     S
C1400  C1401   1.393   .     S
C1401  C1402   1.427   .     D
C1401  H891    1.074   .     S
C1402  H892    1.079   .     S
C1403  C1404   1.427   .     D
C1403  C1408   1.379   .     S
C1403  H893    1.079   .     S
C1404  C1405   1.393   .     S
C1404  H894    1.074   .     S
C1405  C1406   1.394   .     D
C1405  C1909   1.519   1_455 S
C1406  C1407   1.427   .     S
C1406  H895    1.073   .     S
C1407  C1408   1.378   .     D
C1407  H896    1.079   .     S
H876   C1376   1.074   1_556 S
H880   C1383   1.080   1_556 S
C1409  C1410   1.394   .     S
C1409  C1414   1.395   .     D
C1410  C1411   1.427   .     D
C1410  H897    1.074   .     S
C1411  C1412   1.379   .     S
C1411  H898    1.079   .     S
C1412  C1413   1.379   .     D
C1412  C1421   1.580   .     S
C1413  C1414   1.426   .     S
C1413  H899    1.079   .     S
C1414  H900    1.074   .     S
C1415  C1416   1.379   .     S
C1415  C1420   1.427   .     D
C1415  H901    1.079   .     S
C1416  C1417   1.379   .     D
C1416  C1421   1.579   .     S
C1417  C1418   1.427   .     S
C1417  H902    1.079   .     S
C1418  C1419   1.394   .     D
C1418  H903    1.074   .     S
C1419  C1420   1.394   .     S
C1419  C1488   1.519   .     S
C1420  H904    1.074   .     S
C1421  C1422   1.580   .     S
C1421  C1433   1.590   .     S
C1422  C1423   1.378   .     D
C1422  C1427   1.379   .     S
C1423  C1424   1.427   .     S
C1423  H905    1.078   .     S
C1424  C1425   1.394   .     D
C1424  H906    1.073   .     S
C1425  C1426   1.394   .     S
C1425  C1581   1.518   .     S
C1426  C1427   1.427   .     D
C1426  H907    1.074   .     S
C1427  H908    1.079   .     S
C1428  C1429   1.437   .     S
C1428  C1433   1.372   .     D
C1428  H909    1.076   .     S
C1429  C1430   1.372   .     D
C1429  H910    1.076   .     S
C1430  C1431   1.373   .     S
C1430  C1434   1.590   .     S
C1431  C1432   1.436   .     D
C1431  H911    1.077   .     S
C1432  C1433   1.373   .     S
C1432  H912    1.077   .     S
C1434  C1438   1.579   .     S
C1434  C1441   1.581   .     S
C1434  C1452   1.580   .     S
C1435  C1436   1.394   .     S
C1435  C1440   1.394   .     D
C1435  C1629   1.519   .     S
C1436  C1437   1.427   .     D
C1436  H913    1.074   .     S
C1437  C1438   1.378   .     S
C1437  H914    1.079   .     S
C1438  C1439   1.379   .     D
C1439  C1440   1.427   .     S
C1439  H915    1.080   .     S
C1440  H916    1.074   .     S
C1441  C1442   1.379   .     D
C1441  C1446   1.378   .     S
C1442  C1443   1.426   .     S
C1442  H917    1.079   .     S
C1443  C1444   1.394   .     D
C1443  H918    1.074   .     S
C1444  C1445   1.393   .     S
C1444  C1727   1.519   .     S
C1445  C1446   1.427   .     D
C1445  H919    1.074   .     S
C1446  H920    1.078   .     S
C1447  C1448   1.427   .     D
C1447  C1452   1.379   .     S
C1447  H921    1.079   .     S
C1448  C1449   1.394   .     S
C1448  H922    1.074   .     S
C1449  C1450   1.394   .     D
C1449  C1821   1.518   .     S
C1450  C1451   1.427   .     S
C1450  H923    1.074   .     S
C1451  C1452   1.379   .     D
C1451  H924    1.079   .     S
C1453  C335    1.518   1_564 S
C1453  C1454   1.394   1_554 S
C1453  C1458   1.394   .     D
C1454  C1453   1.394   1_556 S
C1454  C1455   1.427   1_556 D
C1454  H925    1.073   .     S
C1455  C1454   1.427   1_554 D
C1455  C1456   1.379   .     S
C1455  H926    1.079   1_554 S
C1456  C1457   1.379   .     D
C1456  C1465   1.580   .     S
C1457  C1458   1.427   .     S
C1457  H927    1.079   .     S
C1458  H928    1.073   .     S
H926   C1455   1.079   1_556 S
C1459  C1460   1.379   .     S
C1459  C1464   1.427   .     D
C1459  H929    1.079   .     S
C1460  C1461   1.379   .     D
C1460  C1465   1.580   .     S
C1461  C1462   1.426   .     S
C1461  H930    1.080   .     S
C1462  C1463   1.394   .     D
C1462  H931    1.074   .     S
C1463  C1464   1.394   .     S
C1463  C1708   1.519   1_554 S
C1464  H932    1.074   1_554 S
C1465  C1466   1.580   .     S
C1465  C1477   1.590   .     S
C1466  C1467   1.379   .     D
C1466  C1471   1.379   .     S
C1467  C1468   1.427   .     S
C1467  H933    1.079   .     S
C1468  C1469   1.394   .     D
C1468  H934    1.074   .     S
C1469  C1470   1.394   1_554 S
C1469  C2417   1.518   1_454 S
C1470  C1469   1.394   1_556 S
C1470  C1471   1.427   1_556 D
C1470  H935    1.074   .     S
C1471  C1470   1.427   1_554 D
C1471  H936    1.080   1_554 S
C1472  C1473   1.437   .     D
C1472  C1477   1.372   .     S
C1472  H937    1.076   .     S
C1473  C1474   1.372   .     S
C1473  H938    1.077   .     S
C1474  C1475   1.373   .     D
C1474  C1478   1.590   .     S
C1475  C1476   1.436   .     S
C1475  H939    1.076   .     S
C1476  C1477   1.373   .     D
C1476  H940    1.077   .     S
C1478  C1482   1.580   .     S
C1478  C1485   1.580   .     S
C1478  C1496   1.580   .     S
C1479  C1      1.518   1_565 S
C1479  C1480   1.394   .     S
C1479  C1484   1.394   .     D
C1480  C1481   1.427   .     D
C1480  H941    1.074   .     S
C1481  C1482   1.378   .     S
C1481  H942    1.079   .     S
C1482  C1483   1.379   .     D
C1483  C1484   1.426   .     S
C1483  H943    1.079   .     S
C1484  H944    1.074   .     S
C1485  C1486   1.379   .     D
C1485  C1490   1.379   .     S
C1486  C1487   1.426   .     S
C1486  H945    1.079   .     S
C1487  C1488   1.394   .     D
C1487  H946    1.074   .     S
C1488  C1489   1.393   .     S
C1489  C1490   1.427   .     D
C1489  H947    1.074   .     S
C1490  H948    1.079   .     S
C1491  C1492   1.427   .     D
C1491  C1496   1.379   .     S
C1491  H949    1.079   .     S
C1492  C1493   1.394   .     S
C1492  H950    1.074   .     S
C1493  C1494   1.394   .     D
C1493  C2085   1.519   1_455 S
C1494  C1495   1.427   .     S
C1494  H951    1.073   .     S
C1495  C1496   1.378   .     D
C1495  H952    1.079   .     S
H932   C1464   1.074   1_556 S
H936   C1471   1.080   1_556 S
C1497  C1498   1.370   .     D
C1497  C1502   1.371   .     S
C1497  H1586   1.071   .     S
C1498  C1499   1.438   .     S
C1498  H953    1.077   .     S
C1499  C1500   1.371   .     D
C1499  H954    1.076   .     S
C1500  C1501   1.373   .     S
C1500  C1509   1.589   .     S
C1501  C1502   1.437   .     D
C1501  H955    1.076   .     S
C1502  H956    1.077   .     S
C1503  C1504   1.379   .     S
C1503  C1508   1.427   .     D
C1503  H957    1.079   .     S
C1504  C1505   1.379   .     D
C1504  C1509   1.577   .     S
C1505  C1506   1.426   .     S
C1505  H958    1.079   .     S
C1506  C1507   1.394   .     D
C1506  H959    1.074   .     S
C1507  C1508   1.394   .     S
C1507  C1576   1.518   .     S
C1508  H960    1.074   .     S
C1509  C1510   1.578   .     S
C1509  C1521   1.587   .     S
C1510  C1511   1.379   .     D
C1510  C1515   1.380   .     S
C1511  C1512   1.427   .     S
C1511  H961    1.078   .     S
C1512  C1513   1.394   .     D
C1512  H962    1.074   .     S
C1513  C1514   1.394   .     S
C1513  C2065   1.518   .     S
C1514  C1515   1.427   .     D
C1514  H963    1.074   .     S
C1515  H964    1.079   .     S
C1516  C1517   1.436   .     S
C1516  C1521   1.373   .     D
C1516  H965    1.076   .     S
C1517  C1518   1.373   .     D
C1517  H966    1.076   .     S
C1518  C1519   1.374   .     S
C1518  C1522   1.587   .     S
C1519  C1520   1.436   .     D
C1519  H967    1.077   .     S
C1520  C1521   1.373   .     S
C1520  H968    1.077   .     S
C1522  C1526   1.589   .     S
C1522  C1529   1.577   .     S
C1522  C1540   1.577   .     S
C1523  C1524   1.370   .     D
C1523  C1528   1.371   .     S
C1523  H1574   1.071   .     S
C1524  C1525   1.438   .     S
C1524  H969    1.077   .     S
C1525  C1526   1.372   .     D
C1525  H970    1.076   .     S
C1526  C1527   1.372   .     S
C1527  C1528   1.437   .     D
C1527  H971    1.077   .     S
C1528  H972    1.077   .     S
C1529  C1530   1.380   .     D
C1529  C1534   1.379   .     S
C1530  C1531   1.426   .     S
C1530  H973    1.079   .     S
C1531  C1532   1.394   .     D
C1531  H974    1.074   .     S
C1532  C1533   1.394   .     S
C1532  C1815   1.518   .     S
C1533  C1534   1.427   .     D
C1533  H975    1.074   .     S
C1534  H976    1.078   .     S
C1535  C1536   1.427   .     S
C1535  C1540   1.379   .     D
C1535  H977    1.079   .     S
C1536  C1537   1.395   .     D
C1536  H978    1.074   .     S
C1537  C1538   1.394   .     S
C1537  C2349   1.518   .     S
C1538  C1539   1.427   .     D
C1538  H979    1.074   .     S
C1539  C1540   1.379   .     S
C1539  H980    1.079   .     S
C1541  C423    1.518   1_564 S
C1541  C1542   1.394   1_554 S
C1541  C1546   1.394   .     D
C1542  C1541   1.394   1_556 S
C1542  C1543   1.427   1_556 D
C1542  H981    1.074   .     S
C1543  C1542   1.427   1_554 D
C1543  C1544   1.379   .     S
C1543  H982    1.079   1_554 S
C1544  C1545   1.379   .     D
C1544  C1553   1.579   .     S
C1545  C1546   1.426   .     S
C1545  H983    1.080   .     S
C1546  H984    1.074   .     S
H982   C1543   1.079   1_556 S
C1547  C1548   1.379   .     S
C1547  C1552   1.427   .     D
C1547  H985    1.078   .     S
C1548  C1549   1.379   .     D
C1548  C1553   1.580   .     S
C1549  C1550   1.427   .     S
C1549  H986    1.079   .     S
C1550  C1551   1.394   .     D
C1550  H987    1.074   .     S
C1551  C1552   1.394   .     S
C1551  C1796   1.518   1_554 S
C1552  H988    1.074   1_554 S
C1553  C1554   1.579   .     S
C1553  C1565   1.590   .     S
C1554  C1555   1.379   .     D
C1554  C1559   1.379   .     S
C1555  C1556   1.427   .     S
C1555  H989    1.079   .     S
C1556  C1557   1.394   .     D
C1556  H990    1.074   .     S
C1557  C1558   1.394   1_554 S
C1557  C1713   1.518   1_554 S
C1558  C1557   1.394   1_556 S
C1558  C1559   1.426   1_556 D
C1558  H991    1.074   .     S
C1559  C1558   1.426   1_554 D
C1559  H992    1.080   1_554 S
C1560  C1561   1.437   .     D
C1560  C1565   1.372   .     S
C1560  H993    1.076   .     S
C1561  C1562   1.373   .     S
C1561  H994    1.076   .     S
C1562  C1563   1.373   .     D
C1562  C1566   1.589   .     S
C1563  C1564   1.436   .     S
C1563  H995    1.076   .     S
C1564  C1565   1.373   .     D
C1564  H996    1.077   .     S
C1566  C1570   1.580   .     S
C1566  C1573   1.580   .     S
C1566  C1584   1.580   .     S
C1567  C89     1.519   1_565 S
C1567  C1568   1.394   .     S
C1567  C1572   1.393   .     D
C1568  C1569   1.428   .     D
C1568  H997    1.073   .     S
C1569  C1570   1.378   .     S
C1569  H998    1.079   .     S
C1570  C1571   1.379   .     D
C1571  C1572   1.427   .     S
C1571  H999    1.079   .     S
C1572  H1000   1.074   .     S
C1573  C1574   1.379   .     D
C1573  C1578   1.378   .     S
C1574  C1575   1.427   .     S
C1574  H1001   1.080   .     S
C1575  C1576   1.394   .     D
C1575  H1002   1.074   .     S
C1576  C1577   1.393   .     S
C1577  C1578   1.428   .     D
C1577  H1003   1.073   .     S
C1578  H1004   1.078   .     S
C1579  C1580   1.427   .     D
C1579  C1584   1.379   .     S
C1579  H1005   1.079   .     S
C1580  C1581   1.394   .     S
C1580  H1006   1.074   .     S
C1581  C1582   1.394   .     D
C1582  C1583   1.427   .     S
C1582  H1007   1.074   .     S
C1583  C1584   1.378   .     D
C1583  H1008   1.079   .     S
H988   C1552   1.074   1_556 S
H992   C1559   1.080   1_556 S
C1585  C1586   1.394   .     S
C1585  C1590   1.395   .     D
C1586  C1587   1.427   .     D
C1586  H1009   1.074   .     S
C1587  C1588   1.379   .     S
C1587  H1010   1.079   .     S
C1588  C1589   1.380   .     D
C1588  C1597   1.577   .     S
C1589  C1590   1.426   .     S
C1589  H1011   1.079   .     S
C1590  H1012   1.074   .     S
C1591  C1592   1.379   .     S
C1591  C1596   1.427   .     D
C1591  H1013   1.079   .     S
C1592  C1593   1.379   .     D
C1592  C1597   1.577   .     S
C1593  C1594   1.426   .     S
C1593  H1014   1.079   .     S
C1594  C1595   1.394   .     D
C1594  H1015   1.074   .     S
C1595  C1596   1.394   .     S
C1595  C1664   1.518   .     S
C1596  H1016   1.074   .     S
C1597  C1598   1.589   .     S
C1597  C1609   1.587   .     S
C1598  C1599   1.372   .     D
C1598  C1603   1.372   .     S
C1599  C1600   1.438   .     S
C1599  H1017   1.076   .     S
C1600  C1601   1.370   .     D
C1600  H1018   1.077   .     S
C1601  C1602   1.371   .     S
C1601  H1575   1.071   .     S
C1602  C1603   1.437   .     D
C1602  H1019   1.077   .     S
C1603  H1020   1.077   .     S
C1604  C1605   1.436   .     S
C1604  C1609   1.372   .     D
C1604  H1021   1.076   .     S
C1605  C1606   1.373   .     D
C1605  H1022   1.076   .     S
C1606  C1607   1.374   .     S
C1606  C1610   1.587   .     S
C1607  C1608   1.435   .     D
C1607  H1023   1.077   .     S
C1608  C1609   1.374   .     S
C1608  H1024   1.077   .     S
C1610  C1614   1.577   .     S
C1610  C1617   1.577   .     S
C1610  C1628   1.589   .     S
C1611  C221    1.518   1_556 S
C1611  C1612   1.394   1_556 S
C1611  C1616   1.394   .     D
C1612  C1611   1.394   1_554 S
C1612  C1613   1.426   1_554 D
C1612  H1025   1.074   .     S
C1613  C1612   1.426   1_556 D
C1613  C1614   1.379   .     S
C1613  H1026   1.078   1_556 S
C1614  C1615   1.380   .     D
C1615  C1616   1.426   .     S
C1615  H1027   1.079   .     S
C1616  H1028   1.074   .     S
C1617  C1618   1.380   .     S
C1617  C1622   1.380   .     D
C1618  C1619   1.427   .     D
C1618  H1029   1.080   .     S
C1619  C1620   1.394   .     S
C1619  H1030   1.074   .     S
C1620  C1375   1.518   1_556 S
C1620  C1621   1.394   .     D
C1621  C1622   1.427   .     S
C1621  H1031   1.074   1_556 S
C1622  H1032   1.078   .     S
C1623  C1624   1.437   1_556 D
C1623  C1628   1.373   .     S
C1623  H1033   1.077   1_556 S
C1624  C1623   1.437   1_554 D
C1624  C1625   1.370   1_554 S
C1624  H1034   1.077   .     S
C1625  C1624   1.370   1_556 S
C1625  C1626   1.370   .     D
C1625  H1587   1.072   1_556 S
C1626  C1627   1.438   .     S
C1626  H1035   1.077   .     S
C1627  C1628   1.372   .     D
C1627  H1036   1.076   .     S
H1026  C1613   1.078   1_554 S
H1031  C1621   1.074   1_554 S
H1033  C1623   1.077   1_554 S
C1629  C1630   1.393   .     S
C1629  C1634   1.394   .     D
C1630  C1631   1.427   .     D
C1630  H1037   1.074   .     S
C1631  C1632   1.378   .     S
C1631  H1038   1.078   .     S
C1632  C1633   1.379   .     D
C1632  C1641   1.580   .     S
C1633  C1634   1.426   .     S
C1633  H1039   1.080   .     S
C1634  H1040   1.074   .     S
C1635  C1636   1.378   .     D
C1635  C1640   1.427   .     S
C1635  H1041   1.078   .     S
C1636  C1637   1.379   .     S
C1636  C1641   1.580   .     S
C1637  C1638   1.427   .     D
C1637  H1042   1.080   .     S
C1638  C1639   1.394   .     S
C1638  H1043   1.074   .     S
C1639  C1640   1.394   .     D
C1640  H1044   1.074   .     S
C1641  C1642   1.580   .     S
C1641  C1653   1.589   .     S
C1642  C1643   1.379   .     D
C1642  C1647   1.379   .     S
C1643  C1644   1.427   .     S
C1643  H1045   1.079   .     S
C1644  C1645   1.394   .     D
C1644  H1046   1.074   .     S
C1645  C1646   1.394   .     S
C1645  C1933   1.518   1_455 S
C1646  C1647   1.427   .     D
C1646  H1047   1.074   .     S
C1647  H1048   1.080   .     S
C1648  C1649   1.437   .     D
C1648  C1653   1.372   .     S
C1648  H1049   1.077   .     S
C1649  C1650   1.372   .     S
C1649  H1050   1.076   .     S
C1650  C1651   1.373   .     D
C1650  C1654   1.590   .     S
C1651  C1652   1.436   .     S
C1651  H1051   1.077   .     S
C1652  C1653   1.373   .     D
C1652  H1052   1.077   .     S
C1654  C1658   1.580   .     S
C1654  C1661   1.580   .     S
C1654  C1672   1.580   .     S
C1655  C1656   1.394   .     S
C1655  C1660   1.394   .     D
C1655  C1673   1.518   .     S
C1656  C1657   1.427   .     D
C1656  H1053   1.074   .     S
C1657  C1658   1.378   .     S
C1657  H1054   1.079   .     S
C1658  C1659   1.379   .     D
C1659  C1660   1.427   .     S
C1659  H1055   1.079   .     S
C1660  H1056   1.074   .     S
C1661  C1662   1.379   .     S
C1661  C1666   1.379   .     D
C1662  C1663   1.427   .     D
C1662  H1057   1.079   .     S
C1663  C1664   1.394   .     S
C1663  H1058   1.074   .     S
C1664  C1665   1.393   .     D
C1665  C1666   1.427   .     S
C1665  H1059   1.074   .     S
C1666  H1060   1.079   .     S
C1667  C1668   1.427   .     D
C1667  C1672   1.379   .     S
C1667  H1061   1.079   .     S
C1668  C1669   1.393   .     S
C1668  H1062   1.074   .     S
C1669  C1670   1.394   .     D
C1669  C2217   1.519   1_455 S
C1670  C1671   1.427   .     S
C1670  H1063   1.073   .     S
C1671  C1672   1.378   .     D
C1671  H1064   1.079   .     S
C1673  C1674   1.394   .     S
C1673  C1678   1.394   .     D
C1674  C1675   1.426   .     D
C1674  H1065   1.074   .     S
C1675  C1676   1.379   .     S
C1675  H1066   1.079   .     S
C1676  C1677   1.379   .     D
C1676  C1685   1.580   .     S
C1677  C1678   1.426   .     S
C1677  H1067   1.079   .     S
C1678  H1068   1.074   .     S
C1679  C1680   1.379   .     S
C1679  C1684   1.427   .     D
C1679  H1069   1.079   .     S
C1680  C1681   1.379   .     D
C1680  C1685   1.579   .     S
C1681  C1682   1.427   .     S
C1681  H1070   1.079   .     S
C1682  C1683   1.394   .     D
C1682  H1071   1.074   .     S
C1683  C1684   1.394   .     S
C1683  C1752   1.519   .     S
C1684  H1072   1.074   .     S
C1685  C1686   1.580   .     S
C1685  C1697   1.590   .     S
C1686  C1687   1.378   .     D
C1686  C1691   1.379   .     S
C1687  C1688   1.427   .     S
C1687  H1073   1.079   .     S
C1688  C1689   1.394   .     D
C1688  H1074   1.073   .     S
C1689  C1690   1.394   .     S
C1689  C1845   1.518   .     S
C1690  C1691   1.427   .     D
C1690  H1075   1.074   .     S
C1691  H1076   1.079   .     S
C1692  C1693   1.437   .     S
C1692  C1697   1.372   .     D
C1692  H1077   1.076   .     S
C1693  C1694   1.371   .     D
C1693  H1078   1.077   .     S
C1694  C1695   1.373   .     S
C1694  C1698   1.590   .     S
C1695  C1696   1.436   .     D
C1695  H1079   1.077   .     S
C1696  C1697   1.373   .     S
C1696  H1080   1.077   .     S
C1698  C1702   1.579   .     S
C1698  C1705   1.580   .     S
C1698  C1716   1.580   .     S
C1699  C1365   1.518   1_556 S
C1699  C1700   1.394   1_556 S
C1699  C1704   1.394   .     D
C1700  C1699   1.394   1_554 S
C1700  C1701   1.427   1_554 D
C1700  H1081   1.073   .     S
C1701  C1700   1.427   1_556 D
C1701  C1702   1.378   .     S
C1701  H1082   1.079   1_556 S
C1702  C1703   1.379   .     D
C1703  C1704   1.427   .     S
C1703  H1083   1.080   .     S
C1704  H1084   1.074   .     S
C1705  C1706   1.379   .     S
C1705  C1710   1.378   .     D
C1706  C1707   1.426   .     D
C1706  H1085   1.079   .     S
C1707  C1708   1.394   .     S
C1707  H1086   1.074   .     S
C1708  C1463   1.519   1_556 S
C1708  C1709   1.393   .     D
C1709  C1710   1.427   .     S
C1709  H1087   1.074   .     S
C1710  H1088   1.078   .     S
C1711  C1712   1.427   1_556 D
C1711  C1716   1.379   .     S
C1711  H1089   1.079   1_556 S
C1712  C1711   1.427   1_554 D
C1712  C1713   1.394   1_554 S
C1712  H1090   1.074   .     S
C1713  C1712   1.394   1_556 S
C1713  C1557   1.518   1_556 S
C1713  C1714   1.394   .     D
C1714  C1715   1.427   .     S
C1714  H1091   1.074   .     S
C1715  C1716   1.378   .     D
C1715  H1092   1.079   .     S
H1082  C1701   1.079   1_554 S
H1089  C1711   1.079   1_554 S
C1717  C27     1.518   1_565 S
C1717  C1718   1.394   .     S
C1717  C1722   1.394   .     D
C1718  C1719   1.427   .     D
C1718  H1093   1.073   .     S
C1719  C1720   1.379   .     S
C1719  H1094   1.079   .     S
C1720  C1721   1.379   .     D
C1720  C1729   1.580   .     S
C1721  C1722   1.427   .     S
C1721  H1095   1.079   .     S
C1722  H1096   1.073   .     S
C1723  C1724   1.379   .     D
C1723  C1728   1.427   .     S
C1723  H1097   1.079   .     S
C1724  C1725   1.379   .     S
C1724  C1729   1.580   .     S
C1725  C1726   1.427   .     D
C1725  H1098   1.080   .     S
C1726  C1727   1.394   .     S
C1726  H1099   1.074   .     S
C1727  C1728   1.394   .     D
C1728  H1100   1.074   .     S
C1729  C1730   1.580   .     S
C1729  C1741   1.589   .     S
C1730  C1731   1.379   .     D
C1730  C1735   1.379   .     S
C1731  C1732   1.427   .     S
C1731  H1101   1.079   .     S
C1732  C1733   1.394   .     D
C1732  H1102   1.074   .     S
C1733  C1734   1.394   .     S
C1733  C2109   1.518   1_455 S
C1734  C1735   1.427   .     D
C1734  H1103   1.074   .     S
C1735  H1104   1.079   .     S
C1736  C1737   1.437   .     D
C1736  C1741   1.372   .     S
C1736  H1105   1.076   .     S
C1737  C1738   1.372   .     S
C1737  H1106   1.077   .     S
C1738  C1739   1.373   .     D
C1738  C1742   1.590   .     S
C1739  C1740   1.436   .     S
C1739  H1107   1.077   .     S
C1740  C1741   1.373   .     D
C1740  H1108   1.077   .     S
C1742  C1746   1.580   .     S
C1742  C1749   1.580   .     S
C1742  C1760   1.580   .     S
C1743  C309    1.518   1_565 S
C1743  C1744   1.394   .     S
C1743  C1748   1.394   .     D
C1744  C1745   1.427   .     D
C1744  H1109   1.074   .     S
C1745  C1746   1.378   .     S
C1745  H1110   1.079   .     S
C1746  C1747   1.379   .     D
C1747  C1748   1.426   .     S
C1747  H1111   1.079   .     S
C1748  H1112   1.074   .     S
C1749  C1750   1.379   .     S
C1749  C1754   1.379   .     D
C1750  C1751   1.426   .     D
C1750  H1113   1.079   .     S
C1751  C1752   1.394   .     S
C1751  H1114   1.074   .     S
C1752  C1753   1.393   .     D
C1753  C1754   1.427   .     S
C1753  H1115   1.074   .     S
C1754  H1116   1.079   .     S
C1755  C1756   1.427   .     D
C1755  C1760   1.379   .     S
C1755  H1117   1.079   .     S
C1756  C1757   1.394   .     S
C1756  H1118   1.074   .     S
C1757  C1758   1.394   .     D
C1757  C2393   1.519   1_455 S
C1758  C1759   1.427   .     S
C1758  H1119   1.073   .     S
C1759  C1760   1.378   .     D
C1759  H1120   1.079   .     S
C1761  C1762   1.370   .     D
C1761  C1766   1.371   .     S
C1761  H1576   1.071   .     S
C1762  C1763   1.438   .     S
C1762  H1121   1.077   .     S
C1763  C1764   1.371   .     D
C1763  H1122   1.076   .     S
C1764  C1765   1.372   .     S
C1764  C1773   1.589   .     S
C1765  C1766   1.437   .     D
C1765  H1123   1.077   .     S
C1766  H1124   1.077   .     S
C1767  C1768   1.379   .     S
C1767  C1772   1.427   .     D
C1767  H1125   1.079   .     S
C1768  C1769   1.379   .     D
C1768  C1773   1.577   .     S
C1769  C1770   1.426   .     S
C1769  H1126   1.079   .     S
C1770  C1771   1.394   .     D
C1770  H1127   1.074   .     S
C1771  C1772   1.394   .     S
C1771  C1840   1.518   .     S
C1772  H1128   1.074   .     S
C1773  C1774   1.578   .     S
C1773  C1785   1.587   .     S
C1774  C1775   1.379   .     D
C1774  C1779   1.380   .     S
C1775  C1776   1.427   .     S
C1775  H1129   1.078   .     S
C1776  C1777   1.394   .     D
C1776  H1130   1.074   .     S
C1777  C1778   1.394   .     S
C1777  C2373   1.518   .     S
C1778  C1779   1.427   .     D
C1778  H1131   1.074   .     S
C1779  H1132   1.079   .     S
C1780  C1781   1.436   .     S
C1780  C1785   1.373   .     D
C1780  H1133   1.076   .     S
C1781  C1782   1.373   .     D
C1781  H1134   1.076   .     S
C1782  C1783   1.373   .     S
C1782  C1786   1.587   .     S
C1783  C1784   1.436   .     D
C1783  H1135   1.077   .     S
C1784  C1785   1.374   .     S
C1784  H1136   1.076   .     S
C1786  C1790   1.589   .     S
C1786  C1793   1.577   .     S
C1786  C1804   1.577   .     S
C1787  C1788   1.370   1_556 D
C1787  C1792   1.371   .     S
C1787  H1588   1.071   .     S
C1788  C1787   1.370   1_554 D
C1788  C1789   1.438   1_554 S
C1788  H1137   1.077   .     S
C1789  C1788   1.438   1_556 S
C1789  C1790   1.372   .     D
C1789  H1138   1.076   1_556 S
C1790  C1791   1.372   .     S
C1791  C1792   1.437   .     D
C1791  H1139   1.077   .     S
C1792  H1140   1.077   .     S
C1793  C1794   1.379   .     S
C1793  C1798   1.379   .     D
C1794  C1795   1.426   .     D
C1794  H1141   1.079   .     S
C1795  C1796   1.394   .     S
C1795  H1142   1.074   .     S
C1796  C1551   1.518   1_556 S
C1796  C1797   1.394   .     D
C1797  C1798   1.427   .     S
C1797  H1143   1.074   .     S
C1798  H1144   1.078   .     S
C1799  C1800   1.426   1_556 S
C1799  C1804   1.380   .     D
C1799  H1145   1.079   1_556 S
C1800  C1799   1.426   1_554 S
C1800  C1801   1.395   1_554 D
C1800  H1146   1.074   .     S
C1801  C1800   1.395   1_556 D
C1801  C1802   1.394   .     S
C1801  C2041   1.518   1_556 S
C1802  C1803   1.427   .     D
C1802  H1147   1.074   .     S
C1803  C1804   1.379   .     S
C1803  H1148   1.078   .     S
H1138  C1789   1.076   1_554 S
H1145  C1799   1.079   1_554 S
C1805  C115    1.518   1_565 S
C1805  C1806   1.394   .     S
C1805  C1810   1.394   .     D
C1806  C1807   1.427   .     D
C1806  H1149   1.074   .     S
C1807  C1808   1.378   .     S
C1807  H1150   1.079   .     S
C1808  C1809   1.379   .     D
C1808  C1817   1.579   .     S
C1809  C1810   1.426   .     S
C1809  H1151   1.080   .     S
C1810  H1152   1.074   .     S
C1811  C1812   1.379   .     D
C1811  C1816   1.427   .     S
C1811  H1153   1.078   .     S
C1812  C1813   1.378   .     S
C1812  C1817   1.580   .     S
C1813  C1814   1.427   .     D
C1813  H1154   1.079   .     S
C1814  C1815   1.394   .     S
C1814  H1155   1.074   .     S
C1815  C1816   1.394   .     D
C1816  H1156   1.074   .     S
C1817  C1818   1.579   .     S
C1817  C1829   1.590   .     S
C1818  C1819   1.379   .     D
C1818  C1823   1.379   .     S
C1819  C1820   1.427   .     S
C1819  H1157   1.079   .     S
C1820  C1821   1.394   .     D
C1820  H1158   1.074   .     S
C1821  C1822   1.394   .     S
C1822  C1823   1.426   .     D
C1822  H1159   1.074   .     S
C1823  H1160   1.080   .     S
C1824  C1825   1.437   .     D
C1824  C1829   1.372   .     S
C1824  H1161   1.076   .     S
C1825  C1826   1.373   .     S
C1825  H1162   1.076   .     S
C1826  C1827   1.373   .     D
C1826  C1830   1.590   .     S
C1827  C1828   1.436   .     S
C1827  H1163   1.076   .     S
C1828  C1829   1.373   .     D
C1828  H1164   1.077   .     S
C1830  C1834   1.580   .     S
C1830  C1837   1.580   .     S
C1830  C1848   1.580   .     S
C1831  C397    1.519   1_565 S
C1831  C1832   1.394   .     S
C1831  C1836   1.393   .     D
C1832  C1833   1.428   .     D
C1832  H1165   1.073   .     S
C1833  C1834   1.378   .     S
C1833  H1166   1.079   .     S
C1834  C1835   1.379   .     D
C1835  C1836   1.427   .     S
C1835  H1167   1.079   .     S
C1836  H1168   1.074   .     S
C1837  C1838   1.379   .     S
C1837  C1842   1.378   .     D
C1838  C1839   1.427   .     D
C1838  H1169   1.079   .     S
C1839  C1840   1.394   .     S
C1839  H1170   1.074   .     S
C1840  C1841   1.393   .     D
C1841  C1842   1.428   .     S
C1841  H1171   1.073   .     S
C1842  H1172   1.078   .     S
C1843  C1844   1.427   .     S
C1843  C1848   1.379   .     D
C1843  H1173   1.079   .     S
C1844  C1845   1.394   .     D
C1844  H1174   1.074   .     S
C1845  C1846   1.394   .     S
C1846  C1847   1.427   .     D
C1846  H1175   1.074   .     S
C1847  C1848   1.378   .     S
C1847  H1176   1.079   .     S
C1849  C1850   1.394   .     S
C1849  C1854   1.394   .     D
C1850  C1851   1.427   .     D
C1850  H1177   1.074   .     S
C1851  C1852   1.379   .     S
C1851  H1178   1.078   .     S
C1852  C1853   1.380   .     D
C1852  C1861   1.577   .     S
C1853  C1854   1.426   .     S
C1853  H1179   1.079   .     S
C1854  H1180   1.074   .     S
C1855  C1856   1.372   .     D
C1855  C1860   1.438   .     S
C1855  H1181   1.076   .     S
C1856  C1857   1.373   .     S
C1856  C1861   1.588   .     S
C1857  C1858   1.437   .     D
C1857  H1182   1.076   .     S
C1858  C1859   1.371   .     S
C1858  H1183   1.077   .     S
C1859  C1860   1.370   .     D
C1859  H1589   1.071   .     S
C1860  H1184   1.077   .     S
C1861  C1862   1.578   .     S
C1861  C1873   1.587   .     S
C1862  C1863   1.379   .     D
C1862  C1867   1.380   .     S
C1863  C1864   1.427   .     S
C1863  H1185   1.079   .     S
C1864  C1865   1.394   .     D
C1864  H1186   1.074   .     S
C1865  C1866   1.394   .     S
C1865  C1977   1.519   .     S
C1866  C1867   1.426   .     D
C1866  H1187   1.074   .     S
C1867  H1188   1.080   .     S
C1868  C1869   1.437   .     S
C1868  C1873   1.373   .     D
C1868  H1189   1.076   .     S
C1869  C1870   1.372   .     D
C1869  H1190   1.076   .     S
C1870  C1871   1.374   .     S
C1870  C1874   1.587   .     S
C1871  C1872   1.436   .     D
C1871  H1191   1.077   .     S
C1872  C1873   1.374   .     S
C1872  H1192   1.077   .     S
C1874  C1878   1.577   .     S
C1874  C1881   1.589   .     S
C1874  C1892   1.577   .     S
C1875  C1876   1.394   .     S
C1875  C1880   1.394   .     D
C1876  C1877   1.427   .     D
C1876  H1193   1.074   .     S
C1877  C1878   1.379   .     S
C1877  H1194   1.079   .     S
C1878  C1879   1.380   .     D
C1879  C1880   1.426   .     S
C1879  H1195   1.079   .     S
C1880  H1196   1.074   .     S
C1881  C1882   1.372   .     D
C1881  C1886   1.372   .     S
C1882  C1883   1.437   .     S
C1882  H1197   1.077   .     S
C1883  C1884   1.371   .     D
C1883  H1198   1.077   .     S
C1884  C1885   1.370   .     S
C1884  H1577   1.071   .     S
C1885  C1886   1.437   .     D
C1885  H1199   1.077   .     S
C1886  H1200   1.076   .     S
C1887  C1888   1.427   .     S
C1887  C1892   1.380   .     D
C1887  H1201   1.079   .     S
C1888  C1889   1.394   .     D
C1888  H1202   1.074   .     S
C1889  C1890   1.394   .     S
C1889  C2261   1.518   .     S
C1890  C1891   1.427   .     D
C1890  H1203   1.074   .     S
C1891  C1892   1.379   .     S
C1891  H1204   1.079   .     S
C1893  C1894   1.394   .     S
C1893  C1898   1.394   .     D
C1894  C1895   1.427   .     D
C1894  H1205   1.074   .     S
C1895  C1896   1.379   .     S
C1895  H1206   1.079   .     S
C1896  C1897   1.379   .     D
C1896  C1905   1.579   .     S
C1897  C1898   1.427   .     S
C1897  H1207   1.079   .     S
C1898  H1208   1.074   .     S
C1899  C1900   1.378   .     S
C1899  C1904   1.427   .     D
C1899  H1209   1.079   .     S
C1900  C1901   1.379   .     D
C1900  C1905   1.580   .     S
C1901  C1902   1.427   .     S
C1901  H1210   1.079   .     S
C1902  C1903   1.394   .     D
C1902  H1211   1.074   .     S
C1903  C1904   1.394   .     S
C1903  C1972   1.519   .     S
C1904  H1212   1.074   .     S
C1905  C1906   1.580   .     S
C1905  C1917   1.589   .     S
C1906  C1907   1.379   .     D
C1906  C1911   1.379   .     S
C1907  C1908   1.427   .     S
C1907  H1213   1.079   .     S
C1908  C1909   1.394   .     D
C1908  H1214   1.073   .     S
C1909  C1405   1.519   1_655 S
C1909  C1910   1.394   .     S
C1910  C1911   1.427   .     D
C1910  H1215   1.074   .     S
C1911  H1216   1.079   .     S
C1912  C1913   1.437   .     S
C1912  C1917   1.372   .     D
C1912  H1217   1.076   .     S
C1913  C1914   1.371   .     D
C1913  H1218   1.076   .     S
C1914  C1915   1.373   .     S
C1914  C1918   1.590   .     S
C1915  C1916   1.436   .     D
C1915  H1219   1.077   .     S
C1916  C1917   1.373   .     S
C1916  H1220   1.077   .     S
C1918  C1922   1.580   .     S
C1918  C1925   1.580   .     S
C1918  C1936   1.580   .     S
C1919  C1920   1.394   .     S
C1919  C1924   1.394   .     D
C1920  C1921   1.427   .     D
C1920  H1221   1.074   .     S
C1921  C1922   1.379   .     S
C1921  H1222   1.079   .     S
C1922  C1923   1.379   .     D
C1923  C1924   1.427   .     S
C1923  H1223   1.080   .     S
C1924  H1224   1.074   .     S
C1925  C1926   1.379   .     D
C1925  C1930   1.378   .     S
C1926  C1927   1.426   .     S
C1926  H1225   1.080   .     S
C1927  C1928   1.394   .     D
C1927  H1226   1.074   .     S
C1928  C1929   1.394   .     S
C1928  C2255   1.518   .     S
C1929  C1930   1.427   .     D
C1929  H1227   1.074   .     S
C1930  H1228   1.079   .     S
C1931  C1932   1.426   .     D
C1931  C1936   1.379   .     S
C1931  H1229   1.079   .     S
C1932  C1933   1.394   .     S
C1932  H1230   1.074   .     S
C1933  C1645   1.518   1_655 S
C1933  C1934   1.394   .     D
C1934  C1935   1.427   .     S
C1934  H1231   1.073   .     S
C1935  C1936   1.379   .     D
C1935  H1232   1.079   .     S
C1937  C1938   1.394   1_554 S
C1937  C1942   1.394   .     D
C1937  C2403   1.518   1_554 S
C1938  C1937   1.394   1_556 S
C1938  C1939   1.427   1_556 D
C1938  H1233   1.074   .     S
C1939  C1938   1.427   1_554 D
C1939  C1940   1.378   .     S
C1939  H1234   1.079   1_554 S
C1940  C1941   1.379   .     D
C1940  C1949   1.579   .     S
C1941  C1942   1.427   .     S
C1941  H1235   1.079   .     S
C1942  H1236   1.074   .     S
H1234  C1939   1.079   1_556 S
C1943  C1944   1.379   .     S
C1943  C1948   1.427   .     D
C1943  H1237   1.078   .     S
C1944  C1945   1.379   .     D
C1944  C1949   1.580   .     S
C1945  C1946   1.427   .     S
C1945  H1238   1.079   .     S
C1946  C1947   1.394   .     D
C1946  H1239   1.074   .     S
C1947  C1948   1.394   .     S
C1947  C2236   1.518   1_554 S
C1948  H1240   1.073   1_554 S
C1949  C1950   1.580   .     S
C1949  C1961   1.590   .     S
C1950  C1951   1.379   .     D
C1950  C1955   1.379   .     S
C1951  C1952   1.427   .     S
C1951  H1241   1.079   .     S
C1952  C1953   1.394   .     D
C1952  H1242   1.073   .     S
C1953  C1954   1.394   1_554 S
C1953  C2197   1.518   1_554 S
C1954  C1953   1.394   1_556 S
C1954  C1955   1.427   1_556 D
C1954  H1243   1.074   .     S
C1955  C1954   1.427   1_554 D
C1955  H1244   1.080   1_554 S
C1956  C1957   1.437   .     D
C1956  C1961   1.372   .     S
C1956  H1245   1.077   .     S
C1957  C1958   1.372   .     S
C1957  H1246   1.077   .     S
C1958  C1959   1.373   .     D
C1958  C1962   1.590   .     S
C1959  C1960   1.436   .     S
C1959  H1247   1.077   .     S
C1960  C1961   1.373   .     D
C1960  H1248   1.077   .     S
C1962  C1966   1.580   .     S
C1962  C1969   1.579   .     S
C1962  C1980   1.580   .     S
C1963  C1964   1.393   .     S
C1963  C1968   1.394   .     D
C1963  C2069   1.518   .     S
C1964  C1965   1.427   .     D
C1964  H1249   1.074   .     S
C1965  C1966   1.378   .     S
C1965  H1250   1.079   .     S
C1966  C1967   1.379   .     D
C1967  C1968   1.427   .     S
C1967  H1251   1.079   .     S
C1968  H1252   1.074   .     S
C1969  C1970   1.379   .     D
C1969  C1974   1.379   .     S
C1970  C1971   1.427   .     S
C1970  H1253   1.080   .     S
C1971  C1972   1.394   .     D
C1971  H1254   1.074   .     S
C1972  C1973   1.393   .     S
C1973  C1974   1.427   .     D
C1973  H1255   1.074   .     S
C1974  H1256   1.079   .     S
C1975  C1976   1.426   .     D
C1975  C1980   1.379   .     S
C1975  H1257   1.079   .     S
C1976  C1977   1.394   .     S
C1976  H1258   1.074   .     S
C1977  C1978   1.394   .     D
C1978  C1979   1.427   .     S
C1978  H1259   1.074   .     S
C1979  C1980   1.379   .     D
C1979  H1260   1.079   .     S
H1240  C1948   1.073   1_556 S
H1244  C1955   1.080   1_556 S
C1981  C1982   1.370   .     D
C1981  C1986   1.371   .     S
C1981  H1590   1.071   .     S
C1982  C1983   1.438   .     S
C1982  H1261   1.077   .     S
C1983  C1984   1.372   .     D
C1983  H1262   1.076   .     S
C1984  C1985   1.373   .     S
C1984  C1993   1.589   .     S
C1985  C1986   1.437   .     D
C1985  H1263   1.077   .     S
C1986  H1264   1.077   .     S
C1987  C1988   1.379   .     S
C1987  C1992   1.427   .     D
C1987  H1265   1.078   .     S
C1988  C1989   1.379   .     D
C1988  C1993   1.577   .     S
C1989  C1990   1.426   .     S
C1989  H1266   1.079   .     S
C1990  C1991   1.394   .     D
C1990  H1267   1.074   .     S
C1991  C1992   1.394   .     S
C1991  C2060   1.518   .     S
C1992  H1268   1.074   .     S
C1993  C1994   1.577   .     S
C1993  C2005   1.587   .     S
C1994  C1995   1.379   .     D
C1994  C1999   1.379   .     S
C1995  C1996   1.427   .     S
C1995  H1269   1.078   .     S
C1996  C1997   1.394   .     D
C1996  H1270   1.073   .     S
C1997  C1998   1.394   .     S
C1997  C2153   1.518   .     S
C1998  C1999   1.427   .     D
C1998  H1271   1.074   .     S
C1999  H1272   1.079   .     S
C2000  C2001   1.436   .     S
C2000  C2005   1.373   .     D
C2000  H1273   1.076   .     S
C2001  C2002   1.372   .     D
C2001  H1274   1.077   .     S
C2002  C2003   1.374   .     S
C2002  C2006   1.587   .     S
C2003  C2004   1.436   .     D
C2003  H1275   1.077   .     S
C2004  C2005   1.373   .     S
C2004  H1276   1.077   .     S
C2006  C2010   1.589   .     S
C2006  C2013   1.578   .     S
C2006  C2024   1.577   .     S
C2007  C2008   1.370   .     D
C2007  C2012   1.371   .     S
C2007  H1578   1.071   .     S
C2008  C2009   1.438   .     S
C2008  H1277   1.076   .     S
C2009  C2010   1.371   .     D
C2009  H1278   1.076   .     S
C2010  C2011   1.373   .     S
C2011  C2012   1.437   .     D
C2011  H1279   1.076   .     S
C2012  H1280   1.077   .     S
C2013  C2014   1.379   .     D
C2013  C2018   1.379   .     S
C2014  C2015   1.427   .     S
C2014  H1281   1.079   .     S
C2015  C2016   1.394   .     D
C2015  H1282   1.074   .     S
C2016  C2017   1.394   .     S
C2016  C2343   1.519   .     S
C2017  C2018   1.426   .     D
C2017  H1283   1.074   .     S
C2018  H1284   1.078   .     S
C2019  C2020   1.427   .     D
C2019  C2024   1.380   .     S
C2019  H1285   1.079   .     S
C2020  C2021   1.394   .     S
C2020  H1286   1.074   .     S
C2021  C2022   1.393   .     D
C2021  C2437   1.518   .     S
C2022  C2023   1.426   .     S
C2022  H1287   1.074   .     S
C2023  C2024   1.379   .     D
C2023  H1288   1.079   .     S
C2025  C995    1.518   1_564 S
C2025  C2026   1.394   1_554 S
C2025  C2030   1.394   .     D
C2026  C2025   1.394   1_556 S
C2026  C2027   1.427   1_556 D
C2026  H1289   1.074   .     S
C2027  C2026   1.427   1_554 D
C2027  C2028   1.379   .     S
C2027  H1290   1.078   1_554 S
C2028  C2029   1.379   .     D
C2028  C2037   1.580   .     S
C2029  C2030   1.427   .     S
C2029  H1291   1.079   .     S
C2030  H1292   1.074   .     S
H1290  C2027   1.078   1_556 S
C2031  C2032   1.378   .     S
C2031  C2036   1.427   .     D
C2031  H1293   1.078   .     S
C2032  C2033   1.379   .     D
C2032  C2037   1.580   .     S
C2033  C2034   1.427   .     S
C2033  H1294   1.079   .     S
C2034  C2035   1.394   .     D
C2034  H1295   1.074   .     S
C2035  C2036   1.393   .     S
C2035  C2324   1.519   1_554 S
C2036  H1296   1.074   1_554 S
C2037  C2038   1.580   .     S
C2037  C2049   1.589   .     S
C2038  C2039   1.379   .     S
C2038  C2043   1.379   .     D
C2039  C2040   1.427   .     D
C2039  H1297   1.079   .     S
C2040  C2041   1.394   .     S
C2040  H1298   1.074   .     S
C2041  C1801   1.518   1_554 S
C2041  C2042   1.394   1_554 D
C2042  C2041   1.394   1_556 D
C2042  C2043   1.426   1_556 S
C2042  H1299   1.074   .     S
C2043  C2042   1.426   1_554 S
C2043  H1300   1.079   1_554 S
C2044  C2045   1.437   .     D
C2044  C2049   1.372   .     S
C2044  H1301   1.077   .     S
C2045  C2046   1.372   .     S
C2045  H1302   1.076   .     S
C2046  C2047   1.373   .     D
C2046  C2050   1.589   .     S
C2047  C2048   1.436   .     S
C2047  H1303   1.078   .     S
C2048  C2049   1.373   .     D
C2048  H1304   1.077   .     S
C2050  C2054   1.580   .     S
C2050  C2057   1.579   .     S
C2050  C2068   1.580   .     S
C2051  C617    1.518   1_565 S
C2051  C2052   1.394   .     S
C2051  C2056   1.394   .     D
C2052  C2053   1.428   .     D
C2052  H1305   1.074   .     S
C2053  C2054   1.378   .     S
C2053  H1306   1.079   .     S
C2054  C2055   1.379   .     D
C2055  C2056   1.427   .     S
C2055  H1307   1.079   .     S
C2056  H1308   1.074   .     S
C2057  C2058   1.379   .     D
C2057  C2062   1.379   .     S
C2058  C2059   1.427   .     S
C2058  H1309   1.079   .     S
C2059  C2060   1.394   .     D
C2059  H1310   1.074   .     S
C2060  C2061   1.394   .     S
C2061  C2062   1.427   .     D
C2061  H1311   1.074   .     S
C2062  H1312   1.079   .     S
C2063  C2064   1.427   .     D
C2063  C2068   1.379   .     S
C2063  H1313   1.080   .     S
C2064  C2065   1.394   .     S
C2064  H1314   1.074   .     S
C2065  C2066   1.394   .     D
C2066  C2067   1.427   .     S
C2066  H1315   1.074   .     S
C2067  C2068   1.378   .     D
C2067  H1316   1.078   .     S
H1296  C2036   1.074   1_556 S
H1300  C2043   1.079   1_556 S
C2069  C2070   1.393   .     S
C2069  C2074   1.394   .     D
C2070  C2071   1.427   .     D
C2070  H1317   1.074   .     S
C2071  C2072   1.379   .     S
C2071  H1318   1.079   .     S
C2072  C2073   1.379   .     D
C2072  C2081   1.580   .     S
C2073  C2074   1.426   .     S
C2073  H1319   1.080   .     S
C2074  H1320   1.074   .     S
C2075  C2076   1.378   .     S
C2075  C2080   1.427   .     D
C2075  H1321   1.078   .     S
C2076  C2077   1.379   .     D
C2076  C2081   1.580   .     S
C2077  C2078   1.426   .     S
C2077  H1322   1.080   .     S
C2078  C2079   1.394   .     D
C2078  H1323   1.074   .     S
C2079  C2080   1.394   .     S
C2079  C2148   1.518   .     S
C2080  H1324   1.073   .     S
C2081  C2082   1.580   .     S
C2081  C2093   1.590   .     S
C2082  C2083   1.379   .     D
C2082  C2087   1.379   .     S
C2083  C2084   1.427   .     S
C2083  H1325   1.079   .     S
C2084  C2085   1.394   .     D
C2084  H1326   1.074   .     S
C2085  C1493   1.519   1_655 S
C2085  C2086   1.394   .     S
C2086  C2087   1.427   .     D
C2086  H1327   1.074   .     S
C2087  H1328   1.079   .     S
C2088  C2089   1.437   .     S
C2088  C2093   1.372   .     D
C2088  H1329   1.076   .     S
C2089  C2090   1.372   .     D
C2089  H1330   1.076   .     S
C2090  C2091   1.373   .     S
C2090  C2094   1.590   .     S
C2091  C2092   1.436   .     D
C2091  H1331   1.077   .     S
C2092  C2093   1.373   .     S
C2092  H1332   1.077   .     S
C2094  C2098   1.579   .     S
C2094  C2101   1.580   .     S
C2094  C2112   1.580   .     S
C2095  C2096   1.393   .     D
C2095  C2100   1.394   .     S
C2095  C2245   1.519   .     S
C2096  C2097   1.427   .     S
C2096  H1333   1.074   .     S
C2097  C2098   1.379   .     D
C2097  H1334   1.079   .     S
C2098  C2099   1.379   .     S
C2099  C2100   1.427   .     D
C2099  H1335   1.079   .     S
C2100  H1336   1.074   .     S
C2101  C2102   1.379   .     D
C2101  C2106   1.378   .     S
C2102  C2103   1.427   .     S
C2102  H1337   1.079   .     S
C2103  C2104   1.394   .     D
C2103  H1338   1.074   .     S
C2104  C2105   1.393   .     S
C2104  C2431   1.519   .     S
C2105  C2106   1.427   .     D
C2105  H1339   1.074   .     S
C2106  H1340   1.078   .     S
C2107  C2108   1.427   .     D
C2107  C2112   1.379   .     S
C2107  H1341   1.080   .     S
C2108  C2109   1.394   .     S
C2108  H1342   1.074   .     S
C2109  C1733   1.518   1_655 S
C2109  C2110   1.394   .     D
C2110  C2111   1.427   .     S
C2110  H1343   1.074   .     S
C2111  C2112   1.379   .     D
C2111  H1344   1.079   .     S
C2113  C1083   1.519   1_564 S
C2113  C2114   1.394   1_554 S
C2113  C2118   1.393   .     D
C2114  C2113   1.394   1_556 S
C2114  C2115   1.427   1_556 D
C2114  H1345   1.074   .     S
C2115  C2114   1.427   1_554 D
C2115  C2116   1.379   .     S
C2115  H1346   1.079   1_554 S
C2116  C2117   1.379   .     D
C2116  C2125   1.580   .     S
C2117  C2118   1.427   .     S
C2117  H1347   1.080   .     S
C2118  H1348   1.074   .     S
H1346  C2115   1.079   1_556 S
C2119  C2120   1.379   .     S
C2119  C2124   1.428   .     D
C2119  H1349   1.078   .     S
C2120  C2121   1.379   .     D
C2120  C2125   1.580   .     S
C2121  C2122   1.427   .     S
C2121  H1350   1.080   .     S
C2122  C2123   1.394   .     D
C2122  H1351   1.074   .     S
C2123  C2124   1.393   .     S
C2123  C2412   1.519   1_554 S
C2124  H1352   1.074   1_554 S
C2125  C2126   1.580   .     S
C2125  C2137   1.589   .     S
C2126  C2127   1.379   .     D
C2126  C2131   1.379   .     S
C2127  C2128   1.427   .     S
C2127  H1353   1.079   .     S
C2128  C2129   1.394   .     D
C2128  H1354   1.074   .     S
C2129  C2130   1.394   1_554 S
C2129  C2329   1.518   1_554 S
C2130  C2129   1.394   1_556 S
C2130  C2131   1.427   1_556 D
C2130  H1355   1.073   .     S
C2131  C2130   1.427   1_554 D
C2131  H1356   1.079   1_554 S
C2132  C2133   1.437   .     D
C2132  C2137   1.372   .     S
C2132  H1357   1.077   .     S
C2133  C2134   1.372   .     S
C2133  H1358   1.076   .     S
C2134  C2135   1.373   .     D
C2134  C2138   1.590   .     S
C2135  C2136   1.436   .     S
C2135  H1359   1.077   .     S
C2136  C2137   1.373   .     D
C2136  H1360   1.077   .     S
C2138  C2142   1.580   .     S
C2138  C2145   1.580   .     S
C2138  C2156   1.580   .     S
C2139  C705    1.518   1_565 S
C2139  C2140   1.393   .     S
C2139  C2144   1.394   .     D
C2140  C2141   1.427   .     D
C2140  H1361   1.074   .     S
C2141  C2142   1.378   .     S
C2141  H1362   1.079   .     S
C2142  C2143   1.379   .     D
C2143  C2144   1.427   .     S
C2143  H1363   1.079   .     S
C2144  H1364   1.074   .     S
C2145  C2146   1.378   .     D
C2145  C2150   1.378   .     S
C2146  C2147   1.427   .     S
C2146  H1365   1.080   .     S
C2147  C2148   1.394   .     D
C2147  H1366   1.074   .     S
C2148  C2149   1.394   .     S
C2149  C2150   1.428   .     D
C2149  H1367   1.073   .     S
C2150  H1368   1.078   .     S
C2151  C2152   1.427   .     D
C2151  C2156   1.379   .     S
C2151  H1369   1.079   .     S
C2152  C2153   1.394   .     S
C2152  H1370   1.074   .     S
C2153  C2154   1.394   .     D
C2154  C2155   1.427   .     S
C2154  H1371   1.074   .     S
C2155  C2156   1.379   .     D
C2155  H1372   1.079   .     S
H1352  C2124   1.074   1_556 S
H1356  C2131   1.079   1_556 S
C2157  C2158   1.394   .     S
C2157  C2162   1.394   .     D
C2158  C2159   1.427   .     D
C2158  H1373   1.074   .     S
C2159  C2160   1.379   .     S
C2159  H1374   1.078   .     S
C2160  C2161   1.380   .     D
C2160  C2169   1.577   .     S
C2161  C2162   1.426   .     S
C2161  H1375   1.079   .     S
C2162  H1376   1.074   .     S
C2163  C2164   1.372   .     D
C2163  C2168   1.438   .     S
C2163  H1377   1.076   .     S
C2164  C2165   1.373   .     S
C2164  C2169   1.588   .     S
C2165  C2166   1.437   .     D
C2165  H1378   1.076   .     S
C2166  C2167   1.370   .     S
C2166  H1379   1.077   .     S
C2167  C2168   1.370   .     D
C2167  H1579   1.071   .     S
C2168  H1380   1.077   .     S
C2169  C2170   1.578   .     S
C2169  C2181   1.587   .     S
C2170  C2171   1.379   .     D
C2170  C2175   1.380   .     S
C2171  C2172   1.427   .     S
C2171  H1381   1.079   .     S
C2172  C2173   1.394   .     D
C2172  H1382   1.074   .     S
C2173  C2174   1.394   .     S
C2173  C2285   1.518   .     S
C2174  C2175   1.426   .     D
C2174  H1383   1.074   .     S
C2175  H1384   1.080   .     S
C2176  C2177   1.437   .     S
C2176  C2181   1.373   .     D
C2176  H1385   1.076   .     S
C2177  C2178   1.372   .     D
C2177  H1386   1.076   .     S
C2178  C2179   1.374   .     S
C2178  C2182   1.587   .     S
C2179  C2180   1.436   .     D
C2179  H1387   1.077   .     S
C2180  C2181   1.374   .     S
C2180  H1388   1.077   .     S
C2182  C2186   1.577   .     S
C2182  C2189   1.588   .     S
C2182  C2200   1.577   .     S
C2183  C837    1.518   1_556 S
C2183  C2184   1.394   1_556 S
C2183  C2188   1.394   .     D
C2184  C2183   1.394   1_554 S
C2184  C2185   1.427   1_554 D
C2184  H1389   1.074   .     S
C2185  C2184   1.427   1_556 D
C2185  C2186   1.379   .     S
C2185  H1390   1.079   1_556 S
C2186  C2187   1.380   .     D
C2187  C2188   1.426   .     S
C2187  H1391   1.079   .     S
C2188  H1392   1.074   .     S
C2189  C2190   1.373   .     S
C2189  C2194   1.372   .     D
C2190  C2191   1.437   .     D
C2190  H1393   1.077   .     S
C2191  C2192   1.371   .     S
C2191  H1394   1.077   .     S
C2192  C2193   1.370   .     D
C2192  H1591   1.071   .     S
C2193  C2194   1.437   .     S
C2193  H1395   1.077   .     S
C2194  H1396   1.076   .     S
C2195  C2196   1.427   1_556 D
C2195  C2200   1.380   .     S
C2195  H1397   1.079   1_556 S
C2196  C2195   1.427   1_554 D
C2196  C2197   1.394   1_554 S
C2196  H1398   1.074   .     S
C2197  C2196   1.394   1_556 S
C2197  C1953   1.518   1_556 S
C2197  C2198   1.394   .     D
C2198  C2199   1.427   .     S
C2198  H1399   1.074   .     S
C2199  C2200   1.379   .     D
C2199  H1400   1.079   .     S
H1390  C2185   1.079   1_554 S
H1397  C2195   1.079   1_554 S
C2201  C2202   1.394   .     S
C2201  C2206   1.394   .     D
C2202  C2203   1.427   .     D
C2202  H1401   1.074   .     S
C2203  C2204   1.378   .     S
C2203  H1402   1.079   .     S
C2204  C2205   1.379   .     D
C2204  C2213   1.580   .     S
C2205  C2206   1.427   .     S
C2205  H1403   1.079   .     S
C2206  H1404   1.074   .     S
C2207  C2208   1.378   .     S
C2207  C2212   1.427   .     D
C2207  H1405   1.079   .     S
C2208  C2209   1.379   .     D
C2208  C2213   1.580   .     S
C2209  C2210   1.427   .     S
C2209  H1406   1.079   .     S
C2210  C2211   1.394   .     D
C2210  H1407   1.074   .     S
C2211  C2212   1.394   .     S
C2211  C2280   1.519   .     S
C2212  H1408   1.074   .     S
C2213  C2214   1.580   .     S
C2213  C2225   1.589   .     S
C2214  C2215   1.379   .     D
C2214  C2219   1.379   .     S
C2215  C2216   1.427   .     S
C2215  H1409   1.079   .     S
C2216  C2217   1.394   .     D
C2216  H1410   1.073   .     S
C2217  C1669   1.519   1_655 S
C2217  C2218   1.394   .     S
C2218  C2219   1.427   .     D
C2218  H1411   1.074   .     S
C2219  H1412   1.079   .     S
C2220  C2221   1.437   .     S
C2220  C2225   1.372   .     D
C2220  H1413   1.076   .     S
C2221  C2222   1.372   .     D
C2221  H1414   1.076   .     S
C2222  C2223   1.373   .     S
C2222  C2226   1.590   .     S
C2223  C2224   1.436   .     D
C2223  H1415   1.077   .     S
C2224  C2225   1.373   .     S
C2224  H1416   1.077   .     S
C2226  C2230   1.580   .     S
C2226  C2233   1.580   .     S
C2226  C2244   1.580   .     S
C2227  C925    1.518   1_556 S
C2227  C2228   1.394   1_556 S
C2227  C2232   1.394   .     D
C2228  C2227   1.394   1_554 S
C2228  C2229   1.427   1_554 D
C2228  H1417   1.074   .     S
C2229  C2228   1.427   1_556 D
C2229  C2230   1.379   .     S
C2229  H1418   1.079   1_556 S
C2230  C2231   1.379   .     D
C2231  C2232   1.427   .     S
C2231  H1419   1.080   .     S
C2232  H1420   1.074   .     S
C2233  C2234   1.379   .     S
C2233  C2238   1.378   .     D
C2234  C2235   1.426   .     D
C2234  H1421   1.080   .     S
C2235  C2236   1.394   .     S
C2235  H1422   1.074   .     S
C2236  C1947   1.518   1_556 S
C2236  C2237   1.394   .     D
C2237  C2238   1.427   .     S
C2237  H1423   1.073   .     S
C2238  H1424   1.079   .     S
C2239  C2240   1.427   1_556 D
C2239  C2244   1.379   .     S
C2239  H1425   1.080   1_556 S
C2240  C2239   1.427   1_554 D
C2240  C2241   1.394   1_554 S
C2240  H1426   1.074   .     S
C2241  C2240   1.394   1_556 S
C2241  C1381   1.518   1_656 S
C2241  C2242   1.394   .     D
C2242  C2243   1.427   .     S
C2242  H1427   1.073   .     S
C2243  C2244   1.379   .     D
C2243  H1428   1.079   .     S
H1418  C2229   1.079   1_554 S
H1425  C2239   1.080   1_554 S
C2245  C2246   1.393   .     S
C2245  C2250   1.394   .     D
C2246  C2247   1.428   .     D
C2246  H1429   1.074   .     S
C2247  C2248   1.378   .     S
C2247  H1430   1.079   .     S
C2248  C2249   1.379   .     D
C2248  C2257   1.579   .     S
C2249  C2250   1.427   .     S
C2249  H1431   1.079   .     S
C2250  H1432   1.074   .     S
C2251  C2252   1.379   .     D
C2251  C2256   1.427   .     S
C2251  H1433   1.079   .     S
C2252  C2253   1.379   .     S
C2252  C2257   1.580   .     S
C2253  C2254   1.427   .     D
C2253  H1434   1.079   .     S
C2254  C2255   1.394   .     S
C2254  H1435   1.074   .     S
C2255  C2256   1.394   .     D
C2256  H1436   1.074   .     S
C2257  C2258   1.580   .     S
C2257  C2269   1.590   .     S
C2258  C2259   1.379   .     S
C2258  C2263   1.379   .     D
C2259  C2260   1.427   .     D
C2259  H1437   1.079   .     S
C2260  C2261   1.394   .     S
C2260  H1438   1.073   .     S
C2261  C2262   1.394   .     D
C2262  C2263   1.427   .     S
C2262  H1439   1.074   .     S
C2263  H1440   1.080   .     S
C2264  C2265   1.437   .     D
C2264  C2269   1.372   .     S
C2264  H1441   1.076   .     S
C2265  C2266   1.372   .     S
C2265  H1442   1.077   .     S
C2266  C2267   1.373   .     D
C2266  C2270   1.590   .     S
C2267  C2268   1.436   .     S
C2267  H1443   1.077   .     S
C2268  C2269   1.373   .     D
C2268  H1444   1.077   .     S
C2270  C2274   1.580   .     S
C2270  C2277   1.579   .     S
C2270  C2288   1.580   .     S
C2271  C2272   1.394   .     S
C2271  C2276   1.394   .     D
C2271  C2377   1.518   .     S
C2272  C2273   1.427   .     D
C2272  H1445   1.074   .     S
C2273  C2274   1.379   .     S
C2273  H1446   1.079   .     S
C2274  C2275   1.379   .     D
C2275  C2276   1.427   .     S
C2275  H1447   1.079   .     S
C2276  H1448   1.074   .     S
C2277  C2278   1.379   .     S
C2277  C2282   1.379   .     D
C2278  C2279   1.427   .     D
C2278  H1449   1.080   .     S
C2279  C2280   1.394   .     S
C2279  H1450   1.074   .     S
C2280  C2281   1.393   .     D
C2281  C2282   1.427   .     S
C2281  H1451   1.074   .     S
C2282  H1452   1.079   .     S
C2283  C2284   1.426   .     S
C2283  C2288   1.379   .     D
C2283  H1453   1.079   .     S
C2284  C2285   1.394   .     D
C2284  H1454   1.074   .     S
C2285  C2286   1.394   .     S
C2286  C2287   1.427   .     D
C2286  H1455   1.074   .     S
C2287  C2288   1.379   .     S
C2287  H1456   1.079   .     S
C2289  C2290   1.370   .     S
C2289  C2294   1.371   .     D
C2289  H1580   1.071   .     S
C2290  C2291   1.438   .     D
C2290  H1457   1.077   .     S
C2291  C2292   1.372   .     S
C2291  H1458   1.076   .     S
C2292  C2293   1.373   .     D
C2292  C2301   1.589   .     S
C2293  C2294   1.437   .     S
C2293  H1459   1.077   .     S
C2294  H1460   1.077   .     S
C2295  C2296   1.379   .     S
C2295  C2300   1.427   .     D
C2295  H1461   1.078   .     S
C2296  C2297   1.379   .     D
C2296  C2301   1.577   .     S
C2297  C2298   1.427   .     S
C2297  H1462   1.079   .     S
C2298  C2299   1.394   .     D
C2298  H1463   1.074   .     S
C2299  C2300   1.394   .     S
C2299  C2368   1.518   .     S
C2300  H1464   1.074   .     S
C2301  C2302   1.577   .     S
C2301  C2313   1.587   .     S
C2302  C2303   1.379   .     D
C2302  C2307   1.379   .     S
C2303  C2304   1.427   .     S
C2303  H1465   1.078   .     S
C2304  C2305   1.394   .     D
C2304  H1466   1.074   .     S
C2305  C2306   1.394   .     S
C2305  C2461   1.518   .     S
C2306  C2307   1.427   .     D
C2306  H1467   1.074   .     S
C2307  H1468   1.079   .     S
C2308  C2309   1.436   .     S
C2308  C2313   1.373   .     D
C2308  H1469   1.077   .     S
C2309  C2310   1.372   .     D
C2309  H1470   1.077   .     S
C2310  C2311   1.374   .     S
C2310  C2314   1.587   .     S
C2311  C2312   1.436   .     D
C2311  H1471   1.077   .     S
C2312  C2313   1.373   .     S
C2312  H1472   1.077   .     S
C2314  C2318   1.589   .     S
C2314  C2321   1.578   .     S
C2314  C2332   1.577   .     S
C2315  C2316   1.370   1_556 D
C2315  C2320   1.371   .     S
C2315  H1592   1.071   .     S
C2316  C2315   1.370   1_554 D
C2316  C2317   1.438   1_554 S
C2316  H1473   1.076   .     S
C2317  C2316   1.438   1_556 S
C2317  C2318   1.371   .     D
C2317  H1474   1.076   1_556 S
C2318  C2319   1.373   .     S
C2319  C2320   1.437   .     D
C2319  H1475   1.077   .     S
C2320  H1476   1.077   .     S
C2321  C2322   1.379   .     S
C2321  C2326   1.379   .     D
C2322  C2323   1.427   .     D
C2322  H1477   1.079   .     S
C2323  C2324   1.394   .     S
C2323  H1478   1.074   .     S
C2324  C2035   1.519   1_556 S
C2324  C2325   1.394   .     D
C2325  C2326   1.427   .     S
C2325  H1479   1.074   .     S
C2326  H1480   1.078   .     S
C2327  C2328   1.427   1_556 D
C2327  C2332   1.380   .     S
C2327  H1481   1.079   1_556 S
C2328  C2327   1.427   1_554 D
C2328  C2329   1.394   1_554 S
C2328  H1482   1.074   .     S
C2329  C2328   1.394   1_556 S
C2329  C2129   1.518   1_556 S
C2329  C2330   1.393   .     D
C2330  C2331   1.426   .     S
C2330  H1483   1.074   .     S
C2331  C2332   1.380   .     D
C2331  H1484   1.078   .     S
H1474  C2317   1.076   1_554 S
H1481  C2327   1.079   1_554 S
C2333  C643    1.518   1_565 S
C2333  C2334   1.394   .     S
C2333  C2338   1.394   .     D
C2334  C2335   1.427   .     D
C2334  H1485   1.074   .     S
C2335  C2336   1.379   .     S
C2335  H1486   1.079   .     S
C2336  C2337   1.379   .     D
C2336  C2345   1.580   .     S
C2337  C2338   1.427   .     S
C2337  H1487   1.079   .     S
C2338  H1488   1.074   .     S
C2339  C2340   1.378   .     D
C2339  C2344   1.427   .     S
C2339  H1489   1.078   .     S
C2340  C2341   1.379   .     S
C2340  C2345   1.580   .     S
C2341  C2342   1.427   .     D
C2341  H1490   1.079   .     S
C2342  C2343   1.394   .     S
C2342  H1491   1.074   .     S
C2343  C2344   1.393   .     D
C2344  H1492   1.074   .     S
C2345  C2346   1.580   .     S
C2345  C2357   1.589   .     S
C2346  C2347   1.379   .     S
C2346  C2351   1.379   .     D
C2347  C2348   1.427   .     D
C2347  H1493   1.079   .     S
C2348  C2349   1.394   .     S
C2348  H1494   1.074   .     S
C2349  C2350   1.394   .     D
C2350  C2351   1.427   .     S
C2350  H1495   1.074   .     S
C2351  H1496   1.079   .     S
C2352  C2353   1.437   .     D
C2352  C2357   1.372   .     S
C2352  H1497   1.077   .     S
C2353  C2354   1.372   .     S
C2353  H1498   1.077   .     S
C2354  C2355   1.373   .     D
C2354  C2358   1.589   .     S
C2355  C2356   1.436   .     S
C2355  H1499   1.077   .     S
C2356  C2357   1.373   .     D
C2356  H1500   1.077   .     S
C2358  C2362   1.580   .     S
C2358  C2365   1.579   .     S
C2358  C2376   1.580   .     S
C2359  C969    1.518   1_565 S
C2359  C2360   1.394   .     S
C2359  C2364   1.394   .     D
C2360  C2361   1.427   .     D
C2360  H1501   1.074   .     S
C2361  C2362   1.379   .     S
C2361  H1502   1.079   .     S
C2362  C2363   1.379   .     D
C2363  C2364   1.427   .     S
C2363  H1503   1.079   .     S
C2364  H1504   1.074   .     S
C2365  C2366   1.379   .     S
C2365  C2370   1.379   .     D
C2366  C2367   1.427   .     D
C2366  H1505   1.079   .     S
C2367  C2368   1.394   .     S
C2367  H1506   1.074   .     S
C2368  C2369   1.394   .     D
C2369  C2370   1.427   .     S
C2369  H1507   1.074   .     S
C2370  H1508   1.079   .     S
C2371  C2372   1.427   .     S
C2371  C2376   1.379   .     D
C2371  H1509   1.080   .     S
C2372  C2373   1.394   .     D
C2372  H1510   1.074   .     S
C2373  C2374   1.394   .     S
C2374  C2375   1.427   .     D
C2374  H1511   1.074   .     S
C2375  C2376   1.378   .     S
C2375  H1512   1.078   .     S
C2377  C2378   1.394   .     S
C2377  C2382   1.394   .     D
C2378  C2379   1.427   .     D
C2378  H1513   1.074   .     S
C2379  C2380   1.379   .     S
C2379  H1514   1.079   .     S
C2380  C2381   1.379   .     D
C2380  C2389   1.580   .     S
C2381  C2382   1.427   .     S
C2381  H1515   1.080   .     S
C2382  H1516   1.074   .     S
C2383  C2384   1.378   .     S
C2383  C2388   1.427   .     D
C2383  H1517   1.078   .     S
C2384  C2385   1.379   .     D
C2384  C2389   1.580   .     S
C2385  C2386   1.426   .     S
C2385  H1518   1.080   .     S
C2386  C2387   1.394   .     D
C2386  H1519   1.074   .     S
C2387  C2388   1.394   .     S
C2387  C2456   1.519   .     S
C2388  H1520   1.073   .     S
C2389  C2390   1.580   .     S
C2389  C2401   1.590   .     S
C2390  C2391   1.379   .     D
C2390  C2395   1.379   .     S
C2391  C2392   1.427   .     S
C2391  H1521   1.079   .     S
C2392  C2393   1.394   .     D
C2392  H1522   1.074   .     S
C2393  C1757   1.519   1_655 S
C2393  C2394   1.394   .     S
C2394  C2395   1.427   .     D
C2394  H1523   1.074   .     S
C2395  H1524   1.079   .     S
C2396  C2397   1.437   .     S
C2396  C2401   1.372   .     D
C2396  H1525   1.076   .     S
C2397  C2398   1.372   .     D
C2397  H1526   1.077   .     S
C2398  C2399   1.373   .     S
C2398  C2402   1.590   .     S
C2399  C2400   1.436   .     D
C2399  H1527   1.077   .     S
C2400  C2401   1.373   .     S
C2400  H1528   1.077   .     S
C2402  C2406   1.579   .     S
C2402  C2409   1.580   .     S
C2402  C2420   1.580   .     S
C2403  C1937   1.518   1_556 S
C2403  C2404   1.393   1_556 S
C2403  C2408   1.394   .     D
C2404  C2403   1.393   1_554 S
C2404  C2405   1.427   1_554 D
C2404  H1529   1.074   .     S
C2405  C2404   1.427   1_556 D
C2405  C2406   1.379   .     S
C2405  H1530   1.079   1_556 S
C2406  C2407   1.379   .     D
C2407  C2408   1.427   .     S
C2407  H1531   1.079   .     S
C2408  H1532   1.074   .     S
C2409  C2410   1.379   .     S
C2409  C2414   1.378   .     D
C2410  C2411   1.427   .     D
C2410  H1533   1.079   .     S
C2411  C2412   1.394   .     S
C2411  H1534   1.074   .     S
C2412  C2123   1.519   1_556 S
C2412  C2413   1.393   .     D
C2413  C2414   1.427   .     S
C2413  H1535   1.074   .     S
C2414  H1536   1.078   .     S
C2415  C2416   1.427   1_556 D
C2415  C2420   1.379   .     S
C2415  H1537   1.080   1_556 S
C2416  C2415   1.427   1_554 D
C2416  C2417   1.394   1_554 S
C2416  H1538   1.074   .     S
C2417  C2416   1.394   1_556 S
C2417  C1469   1.518   1_656 S
C2417  C2418   1.394   .     D
C2418  C2419   1.427   .     S
C2418  H1539   1.074   .     S
C2419  C2420   1.379   .     D
C2419  H1540   1.079   .     S
H1530  C2405   1.079   1_554 S
H1537  C2415   1.080   1_554 S
C2421  C731    1.519   1_565 S
C2421  C2422   1.394   .     S
C2421  C2426   1.393   .     D
C2422  C2423   1.427   .     D
C2422  H1541   1.074   .     S
C2423  C2424   1.379   .     S
C2423  H1542   1.079   .     S
C2424  C2425   1.379   .     D
C2424  C2433   1.579   .     S
C2425  C2426   1.427   .     S
C2425  H1543   1.080   .     S
C2426  H1544   1.074   .     S
C2427  C2428   1.379   .     D
C2427  C2432   1.428   .     S
C2427  H1545   1.078   .     S
C2428  C2429   1.379   .     S
C2428  C2433   1.580   .     S
C2429  C2430   1.427   .     D
C2429  H1546   1.080   .     S
C2430  C2431   1.394   .     S
C2430  H1547   1.074   .     S
C2431  C2432   1.393   .     D
C2432  H1548   1.074   .     S
C2433  C2434   1.579   .     S
C2433  C2445   1.590   .     S
C2434  C2435   1.379   .     D
C2434  C2439   1.379   .     S
C2435  C2436   1.427   .     S
C2435  H1549   1.079   .     S
C2436  C2437   1.394   .     D
C2436  H1550   1.074   .     S
C2437  C2438   1.394   .     S
C2438  C2439   1.427   .     D
C2438  H1551   1.074   .     S
C2439  H1552   1.079   .     S
C2440  C2441   1.437   .     D
C2440  C2445   1.372   .     S
C2440  H1553   1.077   .     S
C2441  C2442   1.372   .     S
C2441  H1554   1.076   .     S
C2442  C2443   1.373   .     D
C2442  C2446   1.590   .     S
C2443  C2444   1.436   .     S
C2443  H1555   1.076   .     S
C2444  C2445   1.373   .     D
C2444  H1556   1.077   .     S
C2446  C2450   1.580   .     S
C2446  C2453   1.580   .     S
C2446  C2464   1.580   .     S
C2447  C1057   1.518   1_565 S
C2447  C2448   1.393   .     S
C2447  C2452   1.394   .     D
C2448  C2449   1.427   .     D
C2448  H1557   1.074   .     S
C2449  C2450   1.378   .     S
C2449  H1558   1.079   .     S
C2450  C2451   1.379   .     D
C2451  C2452   1.427   .     S
C2451  H1559   1.079   .     S
C2452  H1560   1.074   .     S
C2453  C2454   1.378   .     S
C2453  C2458   1.378   .     D
C2454  C2455   1.427   .     D
C2454  H1561   1.080   .     S
C2455  C2456   1.394   .     S
C2455  H1562   1.074   .     S
C2456  C2457   1.393   .     D
C2457  C2458   1.428   .     S
C2457  H1563   1.074   .     S
C2458  H1564   1.078   .     S
C2459  C2460   1.427   .     S
C2459  C2464   1.379   .     D
C2459  H1565   1.079   .     S
C2460  C2461   1.394   .     D
C2460  H1566   1.074   .     S
C2461  C2462   1.394   .     S
C2462  C2463   1.427   .     D
C2462  H1567   1.074   .     S
C2463  C2464   1.379   .     S
C2463  H1568   1.079   .     S
H1583  C525    1.071   1_554 S
H1587  C1625   1.072   1_554 S
