data_Si_acs_defect_4_opt
_audit_creation_date              2023-10-19
_audit_creation_method            'Materials Studio'
_symmetry_space_group_name_H-M    'P1'
_symmetry_Int_Tables_number       1
_symmetry_cell_setting            triclinic
loop_
_symmetry_equiv_pos_as_xyz
  x,y,z
_cell_length_a                    35.9965
_cell_length_b                    35.4078
_cell_length_c                    41.5302
_cell_angle_alpha                 90.3721
_cell_angle_beta                  89.8694
_cell_angle_gamma                 120.0790
loop_
_atom_site_label
_atom_site_type_symbol
_atom_site_fract_x
_atom_site_fract_y
_atom_site_fract_z
_atom_site_U_iso_or_equiv
_atom_site_adp_type
_atom_site_occupancy
C1     C     0.26894   0.02776   0.25711   0.00000  Uiso   1.00
C2     C     0.31051   0.05715   0.24671   0.00000  Uiso   1.00
C3     C     0.33198   0.09969   0.25813   0.00000  Uiso   1.00
C4     C     0.31322   0.11506   0.28051   0.00000  Uiso   1.00
C5     C     0.27151   0.08478   0.29096   0.00000  Uiso   1.00
C6     C     0.24983   0.04228   0.27958   0.00000  Uiso   1.00
H1     H     0.32714   0.04620   0.22862   0.00000  Uiso   1.00
H2     H     0.36587   0.12336   0.24938   0.00000  Uiso   1.00
H3     H     0.25462   0.09504   0.30934   0.00000  Uiso   1.00
H4     H     0.21604   0.01901   0.28871   0.00000  Uiso   1.00
C7     C     0.27256   0.17900   0.26142   0.00000  Uiso   1.00
C8     C     0.31096   0.20145   0.27905   0.00000  Uiso   1.00
C9     C     0.32679   0.24628   0.28439   0.00000  Uiso   1.00
C10    C     0.30557   0.26711   0.27319   0.00000  Uiso   1.00
C11    C     0.26727   0.24408   0.25587   0.00000  Uiso   1.00
C12    C     0.25121   0.19965   0.25008   0.00000  Uiso   1.00
Si1    Si    0.34046   0.17375   0.29535   0.00000  Uiso   1.00
C13    C     0.39814   0.20365   0.28060   0.00000  Uiso   1.00
C14    C     0.42952   0.19617   0.29441   0.00000  Uiso   1.00
C15    C     0.47113   0.21596   0.28288   0.00000  Uiso   1.00
C16    C     0.48368   0.24460   0.25684   0.00000  Uiso   1.00
C17    C     0.45306   0.25269   0.24292   0.00000  Uiso   1.00
C18    C     0.41143   0.23263   0.25450   0.00000  Uiso   1.00
C19    C     0.32970   0.20129   0.35938   0.00000  Uiso   1.00
C20    C     0.32953   0.20082   0.39272   0.00000  Uiso   1.00
C21    C     0.33872   0.17261   0.41018   0.00000  Uiso   1.00
C22    C     0.34816   0.14487   0.39191   0.00000  Uiso   1.00
C23    C     0.34825   0.14529   0.35859   0.00000  Uiso   1.00
C24    C     0.33910   0.17360   0.34113   0.00000  Uiso   1.00
Si2    Si    0.33853   0.17242   0.45589   0.00000  Uiso   1.00
C25    C     0.26303   0.02780   0.49565   0.00000  Uiso   1.00
C26    C     0.29043   0.06296   0.51537   0.00000  Uiso   1.00
C27    C     0.31244   0.10487   0.50322   0.00000  Uiso   1.00
C28    C     0.30831   0.11399   0.47092   0.00000  Uiso   1.00
C29    C     0.28042   0.07821   0.45156   0.00000  Uiso   1.00
C30    C     0.25838   0.03617   0.46353   0.00000  Uiso   1.00
C31    C     0.31032   0.20233   0.47087   0.00000  Uiso   1.00
C32    C     0.33197   0.24697   0.47892   0.00000  Uiso   1.00
C33    C     0.31033   0.26781   0.48950   0.00000  Uiso   1.00
C34    C     0.26560   0.24516   0.49215   0.00000  Uiso   1.00
C35    C     0.24343   0.20095   0.48365   0.00000  Uiso   1.00
C36    C     0.26529   0.18018   0.47346   0.00000  Uiso   1.00
C37    C     0.40707   0.22155   0.50185   0.00000  Uiso   1.00
C38    C     0.44866   0.24132   0.51353   0.00000  Uiso   1.00
C39    C     0.48116   0.23992   0.49603   0.00000  Uiso   1.00
C40    C     0.47024   0.21773   0.46651   0.00000  Uiso   1.00
C41    C     0.42872   0.19854   0.45477   0.00000  Uiso   1.00
C42    C     0.39565   0.19988   0.47190   0.00000  Uiso   1.00
H5     H     0.25809   0.14268   0.25607   0.00000  Uiso   1.00
H6     H     0.35798   0.26653   0.29831   0.00000  Uiso   1.00
H7     H     0.31931   0.30344   0.27806   0.00000  Uiso   1.00
H8     H     0.22014   0.18037   0.23583   0.00000  Uiso   1.00
H9     H     0.42096   0.17320   0.31576   0.00000  Uiso   1.00
H10    H     0.49565   0.20899   0.29463   0.00000  Uiso   1.00
H11    H     0.46225   0.27605   0.22176   0.00000  Uiso   1.00
H12    H     0.38764   0.24021   0.24222   0.00000  Uiso   1.00
H13    H     0.32207   0.22460   0.34600   0.00000  Uiso   1.00
H14    H     0.32178   0.22376   0.40679   0.00000  Uiso   1.00
H15    H     0.35601   0.12122   0.40453   0.00000  Uiso   1.00
H16    H     0.35588   0.12227   0.34451   0.00000  Uiso   1.00
H17    H     0.29481   0.05724   0.54173   0.00000  Uiso   1.00
H18    H     0.33475   0.13330   0.51952   0.00000  Uiso   1.00
H19    H     0.27544   0.08338   0.42521   0.00000  Uiso   1.00
H20    H     0.23622   0.00821   0.44683   0.00000  Uiso   1.00
H21    H     0.36841   0.26708   0.47681   0.00000  Uiso   1.00
H22    H     0.32900   0.30394   0.49619   0.00000  Uiso   1.00
H23    H     0.20689   0.18157   0.48507   0.00000  Uiso   1.00
H24    H     0.24569   0.14400   0.46707   0.00000  Uiso   1.00
H25    H     0.38083   0.22252   0.51662   0.00000  Uiso   1.00
H26    H     0.45679   0.25906   0.53774   0.00000  Uiso   1.00
H27    H     0.49570   0.21527   0.45176   0.00000  Uiso   1.00
H28    H     0.42046   0.18095   0.43050   0.00000  Uiso   1.00
C43    C     0.23985   0.48297   0.00820   0.00000  Uiso   1.00
C44    C     0.19810   0.45358   0.99800   0.00000  Uiso   1.00
C45    C     0.17671   0.41112   0.00921   0.00000  Uiso   1.00
C46    C     0.19582   0.39571   0.03098   0.00000  Uiso   1.00
C47    C     0.23763   0.42607   0.04138   0.00000  Uiso   1.00
C48    C     0.25915   0.46858   0.03037   0.00000  Uiso   1.00
H29    H     0.18125   0.46445   0.98025   0.00000  Uiso   1.00
H30    H     0.14257   0.38753   0.00078   0.00000  Uiso   1.00
H31    H     0.25476   0.41588   0.05941   0.00000  Uiso   1.00
H32    H     0.29295   0.49196   0.03955   0.00000  Uiso   1.00
C49    C     0.23694   0.33214   0.00948   0.00000  Uiso   1.00
C50    C     0.19920   0.31006   0.02778   0.00000  Uiso   1.00
C51    C     0.18372   0.26542   0.03328   0.00000  Uiso   1.00
C52    C     0.20488   0.24451   0.02183   0.00000  Uiso   1.00
C53    C     0.24263   0.26717   0.00390   0.00000  Uiso   1.00
C54    C     0.25808   0.31132   0.99772   0.00000  Uiso   1.00
Si3    Si    0.16951   0.33710   0.04535   0.00000  Uiso   1.00
C55    C     0.11147   0.30586   0.03148   0.00000  Uiso   1.00
C56    C     0.07613   0.28737   0.05245   0.00000  Uiso   1.00
C57    C     0.03429   0.26568   0.04116   0.00000  Uiso   1.00
C58    C     0.02557   0.26170   0.00814   0.00000  Uiso   1.00
C59    C     0.06036   0.27953   0.98688   0.00000  Uiso   1.00
C60    C     0.10207   0.30072   0.99831   0.00000  Uiso   1.00
C61    C     0.18645   0.31302   0.10858   0.00000  Uiso   1.00
C62    C     0.18654   0.31299   0.14194   0.00000  Uiso   1.00
C63    C     0.17203   0.33672   0.16000   0.00000  Uiso   1.00
C64    C     0.15742   0.36062   0.14239   0.00000  Uiso   1.00
C65    C     0.15722   0.36054   0.10909   0.00000  Uiso   1.00
C66    C     0.17166   0.33663   0.09101   0.00000  Uiso   1.00
Si4    Si    0.17115   0.33678   0.20569   0.00000  Uiso   1.00
C67    C     0.24573   0.48264   0.24472   0.00000  Uiso   1.00
C68    C     0.21863   0.44806   0.26471   0.00000  Uiso   1.00
C69    C     0.19667   0.40575   0.25296   0.00000  Uiso   1.00
C70    C     0.20039   0.39553   0.22076   0.00000  Uiso   1.00
C71    C     0.22790   0.43079   0.20108   0.00000  Uiso   1.00
C72    C     0.25002   0.47324   0.21267   0.00000  Uiso   1.00
C73    C     0.19976   0.30798   0.22166   0.00000  Uiso   1.00
C74    C     0.17789   0.26478   0.23282   0.00000  Uiso   1.00
C75    C     0.19951   0.24423   0.24379   0.00000  Uiso   1.00
C76    C     0.24433   0.26595   0.24407   0.00000  Uiso   1.00
C77    C     0.26671   0.30889   0.23294   0.00000  Uiso   1.00
C78    C     0.24489   0.32925   0.22207   0.00000  Uiso   1.00
C79    C     0.10421   0.29792   0.25346   0.00000  Uiso   1.00
C80    C     0.06268   0.27783   0.26518   0.00000  Uiso   1.00
C81    C     0.02793   0.26577   0.24445   0.00000  Uiso   1.00
C82    C     0.03639   0.27437   0.21165   0.00000  Uiso   1.00
C83    C     0.07807   0.29476   0.20013   0.00000  Uiso   1.00
C84    C     0.11350   0.30747   0.22058   0.00000  Uiso   1.00
H33    H     0.25102   0.36826   0.00392   0.00000  Uiso   1.00
H34    H     0.15288   0.24540   0.04755   0.00000  Uiso   1.00
H35    H     0.19157   0.20839   0.02698   0.00000  Uiso   1.00
H36    H     0.28850   0.33022   0.98278   0.00000  Uiso   1.00
H37    H     0.08147   0.29000   0.07961   0.00000  Uiso   1.00
H38    H     0.00637   0.25076   0.05887   0.00000  Uiso   1.00
H39    H     0.05450   0.27668   0.95978   0.00000  Uiso   1.00
H40    H     0.12927   0.31423   0.97996   0.00000  Uiso   1.00
H41    H     0.19861   0.29351   0.09466   0.00000  Uiso   1.00
H42    H     0.19862   0.29333   0.15547   0.00000  Uiso   1.00
H43    H     0.14534   0.38072   0.15558   0.00000  Uiso   1.00
H44    H     0.14514   0.38020   0.09555   0.00000  Uiso   1.00
H45    H     0.21444   0.45457   0.29101   0.00000  Uiso   1.00
H46    H     0.17470   0.37782   0.26953   0.00000  Uiso   1.00
H47    H     0.23251   0.42486   0.17474   0.00000  Uiso   1.00
H48    H     0.27193   0.50067   0.19572   0.00000  Uiso   1.00
H49    H     0.14130   0.24563   0.23301   0.00000  Uiso   1.00
H50    H     0.18072   0.20917   0.25274   0.00000  Uiso   1.00
H51    H     0.30331   0.32749   0.23276   0.00000  Uiso   1.00
H52    H     0.26458   0.36431   0.21327   0.00000  Uiso   1.00
H53    H     0.13224   0.30729   0.27061   0.00000  Uiso   1.00
H54    H     0.05650   0.27094   0.29202   0.00000  Uiso   1.00
H55    H     0.00879   0.26457   0.19399   0.00000  Uiso   1.00
H56    H     0.08446   0.30171   0.17331   0.00000  Uiso   1.00
C85    C     0.76894   0.02776   0.25711   0.00000  Uiso   1.00
C86    C     0.81051   0.05715   0.24671   0.00000  Uiso   1.00
C87    C     0.83198   0.09969   0.25813   0.00000  Uiso   1.00
C88    C     0.81322   0.11506   0.28051   0.00000  Uiso   1.00
C89    C     0.77151   0.08478   0.29096   0.00000  Uiso   1.00
C90    C     0.74983   0.04228   0.27958   0.00000  Uiso   1.00
H57    H     0.82714   0.04620   0.22862   0.00000  Uiso   1.00
H58    H     0.86587   0.12336   0.24938   0.00000  Uiso   1.00
H59    H     0.75462   0.09504   0.30934   0.00000  Uiso   1.00
H60    H     0.71604   0.01901   0.28871   0.00000  Uiso   1.00
C91    C     0.77256   0.17900   0.26142   0.00000  Uiso   1.00
C92    C     0.81096   0.20145   0.27905   0.00000  Uiso   1.00
C93    C     0.82679   0.24628   0.28439   0.00000  Uiso   1.00
C94    C     0.80557   0.26711   0.27319   0.00000  Uiso   1.00
C95    C     0.76727   0.24408   0.25587   0.00000  Uiso   1.00
C96    C     0.75121   0.19965   0.25008   0.00000  Uiso   1.00
Si5    Si    0.84046   0.17375   0.29535   0.00000  Uiso   1.00
C97    C     0.89814   0.20365   0.28060   0.00000  Uiso   1.00
C98    C     0.92952   0.19617   0.29441   0.00000  Uiso   1.00
C99    C     0.97113   0.21596   0.28288   0.00000  Uiso   1.00
C100   C     0.98368   0.24460   0.25684   0.00000  Uiso   1.00
C101   C     0.95306   0.25269   0.24292   0.00000  Uiso   1.00
C102   C     0.91144   0.23263   0.25450   0.00000  Uiso   1.00
C103   C     0.82970   0.20129   0.35938   0.00000  Uiso   1.00
C104   C     0.82953   0.20082   0.39272   0.00000  Uiso   1.00
C105   C     0.83872   0.17261   0.41018   0.00000  Uiso   1.00
C106   C     0.84816   0.14487   0.39191   0.00000  Uiso   1.00
C107   C     0.84825   0.14529   0.35859   0.00000  Uiso   1.00
C108   C     0.83910   0.17360   0.34113   0.00000  Uiso   1.00
Si6    Si    0.83853   0.17242   0.45589   0.00000  Uiso   1.00
C109   C     0.76303   0.02780   0.49565   0.00000  Uiso   1.00
C110   C     0.79043   0.06296   0.51537   0.00000  Uiso   1.00
C111   C     0.81244   0.10487   0.50322   0.00000  Uiso   1.00
C112   C     0.80831   0.11399   0.47092   0.00000  Uiso   1.00
C113   C     0.78042   0.07821   0.45156   0.00000  Uiso   1.00
C114   C     0.75838   0.03617   0.46353   0.00000  Uiso   1.00
C115   C     0.81032   0.20233   0.47087   0.00000  Uiso   1.00
C116   C     0.83197   0.24697   0.47892   0.00000  Uiso   1.00
C117   C     0.81033   0.26781   0.48950   0.00000  Uiso   1.00
C118   C     0.76561   0.24516   0.49215   0.00000  Uiso   1.00
C119   C     0.74343   0.20095   0.48365   0.00000  Uiso   1.00
C120   C     0.76529   0.18018   0.47346   0.00000  Uiso   1.00
C121   C     0.90707   0.22155   0.50185   0.00000  Uiso   1.00
C122   C     0.94866   0.24132   0.51353   0.00000  Uiso   1.00
C123   C     0.98116   0.23992   0.49603   0.00000  Uiso   1.00
C124   C     0.97024   0.21773   0.46651   0.00000  Uiso   1.00
C125   C     0.92872   0.19854   0.45477   0.00000  Uiso   1.00
C126   C     0.89565   0.19988   0.47190   0.00000  Uiso   1.00
H61    H     0.75809   0.14268   0.25607   0.00000  Uiso   1.00
H62    H     0.85798   0.26653   0.29831   0.00000  Uiso   1.00
H63    H     0.81931   0.30344   0.27806   0.00000  Uiso   1.00
H64    H     0.72014   0.18037   0.23583   0.00000  Uiso   1.00
H65    H     0.92096   0.17320   0.31576   0.00000  Uiso   1.00
H66    H     0.99565   0.20899   0.29463   0.00000  Uiso   1.00
H67    H     0.96225   0.27606   0.22176   0.00000  Uiso   1.00
H68    H     0.88766   0.24021   0.24221   0.00000  Uiso   1.00
H69    H     0.82207   0.22460   0.34600   0.00000  Uiso   1.00
H70    H     0.82178   0.22376   0.40679   0.00000  Uiso   1.00
H71    H     0.85601   0.12122   0.40453   0.00000  Uiso   1.00
H72    H     0.85588   0.12227   0.34451   0.00000  Uiso   1.00
H73    H     0.79481   0.05724   0.54173   0.00000  Uiso   1.00
H74    H     0.83475   0.13330   0.51952   0.00000  Uiso   1.00
H75    H     0.77544   0.08338   0.42521   0.00000  Uiso   1.00
H76    H     0.73622   0.00821   0.44683   0.00000  Uiso   1.00
H77    H     0.86841   0.26708   0.47681   0.00000  Uiso   1.00
H78    H     0.82900   0.30394   0.49619   0.00000  Uiso   1.00
H79    H     0.70689   0.18157   0.48507   0.00000  Uiso   1.00
H80    H     0.74569   0.14400   0.46707   0.00000  Uiso   1.00
H81    H     0.88083   0.22252   0.51662   0.00000  Uiso   1.00
H82    H     0.95679   0.25906   0.53774   0.00000  Uiso   1.00
H83    H     0.99570   0.21527   0.45176   0.00000  Uiso   1.00
H84    H     0.92046   0.18095   0.43050   0.00000  Uiso   1.00
C127   C     0.73985   0.48297   0.00820   0.00000  Uiso   1.00
C128   C     0.69810   0.45358   0.99800   0.00000  Uiso   1.00
C129   C     0.67671   0.41112   0.00921   0.00000  Uiso   1.00
C130   C     0.69581   0.39571   0.03097   0.00000  Uiso   1.00
C131   C     0.73763   0.42607   0.04138   0.00000  Uiso   1.00
C132   C     0.75915   0.46858   0.03037   0.00000  Uiso   1.00
H85    H     0.68125   0.46445   0.98025   0.00000  Uiso   1.00
H86    H     0.64257   0.38753   0.00078   0.00000  Uiso   1.00
H87    H     0.75475   0.41588   0.05941   0.00000  Uiso   1.00
H88    H     0.79295   0.49196   0.03955   0.00000  Uiso   1.00
C133   C     0.73694   0.33214   0.00948   0.00000  Uiso   1.00
C134   C     0.69920   0.31006   0.02778   0.00000  Uiso   1.00
C135   C     0.68373   0.26542   0.03328   0.00000  Uiso   1.00
C136   C     0.70488   0.24451   0.02183   0.00000  Uiso   1.00
C137   C     0.74263   0.26717   0.00390   0.00000  Uiso   1.00
C138   C     0.75808   0.31132   0.99772   0.00000  Uiso   1.00
Si7    Si    0.66951   0.33710   0.04535   0.00000  Uiso   1.00
C139   C     0.61147   0.30586   0.03148   0.00000  Uiso   1.00
C140   C     0.57613   0.28737   0.05245   0.00000  Uiso   1.00
C141   C     0.53429   0.26568   0.04116   0.00000  Uiso   1.00
C142   C     0.52557   0.26170   0.00814   0.00000  Uiso   1.00
C143   C     0.56036   0.27953   0.98688   0.00000  Uiso   1.00
C144   C     0.60207   0.30072   0.99831   0.00000  Uiso   1.00
C145   C     0.68645   0.31302   0.10858   0.00000  Uiso   1.00
C146   C     0.68654   0.31299   0.14194   0.00000  Uiso   1.00
C147   C     0.67203   0.33672   0.16000   0.00000  Uiso   1.00
C148   C     0.65742   0.36062   0.14239   0.00000  Uiso   1.00
C149   C     0.65722   0.36054   0.10909   0.00000  Uiso   1.00
C150   C     0.67166   0.33663   0.09101   0.00000  Uiso   1.00
Si8    Si    0.67115   0.33678   0.20569   0.00000  Uiso   1.00
C151   C     0.74573   0.48264   0.24472   0.00000  Uiso   1.00
C152   C     0.71863   0.44806   0.26471   0.00000  Uiso   1.00
C153   C     0.69667   0.40575   0.25296   0.00000  Uiso   1.00
C154   C     0.70039   0.39553   0.22076   0.00000  Uiso   1.00
C155   C     0.72790   0.43079   0.20108   0.00000  Uiso   1.00
C156   C     0.75002   0.47324   0.21267   0.00000  Uiso   1.00
C157   C     0.69976   0.30798   0.22166   0.00000  Uiso   1.00
C158   C     0.67789   0.26478   0.23282   0.00000  Uiso   1.00
C159   C     0.69951   0.24423   0.24379   0.00000  Uiso   1.00
C160   C     0.74433   0.26595   0.24407   0.00000  Uiso   1.00
C161   C     0.76671   0.30889   0.23294   0.00000  Uiso   1.00
C162   C     0.74489   0.32925   0.22207   0.00000  Uiso   1.00
C163   C     0.60421   0.29792   0.25346   0.00000  Uiso   1.00
C164   C     0.56268   0.27783   0.26518   0.00000  Uiso   1.00
C165   C     0.52793   0.26577   0.24445   0.00000  Uiso   1.00
C166   C     0.53639   0.27437   0.21165   0.00000  Uiso   1.00
C167   C     0.57807   0.29476   0.20013   0.00000  Uiso   1.00
C168   C     0.61350   0.30747   0.22058   0.00000  Uiso   1.00
H89    H     0.75102   0.36826   0.00392   0.00000  Uiso   1.00
H90    H     0.65289   0.24540   0.04755   0.00000  Uiso   1.00
H91    H     0.69156   0.20839   0.02698   0.00000  Uiso   1.00
H92    H     0.78850   0.33022   0.98278   0.00000  Uiso   1.00
H93    H     0.58147   0.29000   0.07961   0.00000  Uiso   1.00
H94    H     0.50637   0.25076   0.05887   0.00000  Uiso   1.00
H95    H     0.55450   0.27668   0.95978   0.00000  Uiso   1.00
H96    H     0.62927   0.31423   0.97996   0.00000  Uiso   1.00
H97    H     0.69861   0.29351   0.09466   0.00000  Uiso   1.00
H98    H     0.69862   0.29333   0.15547   0.00000  Uiso   1.00
H99    H     0.64534   0.38072   0.15558   0.00000  Uiso   1.00
H100   H     0.64514   0.38020   0.09555   0.00000  Uiso   1.00
H101   H     0.71444   0.45457   0.29101   0.00000  Uiso   1.00
H102   H     0.67470   0.37782   0.26953   0.00000  Uiso   1.00
H103   H     0.73251   0.42486   0.17474   0.00000  Uiso   1.00
H104   H     0.77193   0.50067   0.19572   0.00000  Uiso   1.00
H105   H     0.64130   0.24563   0.23301   0.00000  Uiso   1.00
H106   H     0.68072   0.20917   0.25274   0.00000  Uiso   1.00
H107   H     0.80331   0.32749   0.23276   0.00000  Uiso   1.00
H108   H     0.76458   0.36431   0.21327   0.00000  Uiso   1.00
H109   H     0.63224   0.30729   0.27061   0.00000  Uiso   1.00
H110   H     0.55650   0.27094   0.29202   0.00000  Uiso   1.00
H111   H     0.50879   0.26457   0.19399   0.00000  Uiso   1.00
H112   H     0.58446   0.30171   0.17331   0.00000  Uiso   1.00
C169   C     0.76894   0.52776   0.25711   0.00000  Uiso   1.00
C170   C     0.81051   0.55715   0.24671   0.00000  Uiso   1.00
C171   C     0.83198   0.59969   0.25813   0.00000  Uiso   1.00
C172   C     0.81322   0.61506   0.28051   0.00000  Uiso   1.00
C173   C     0.77151   0.58478   0.29096   0.00000  Uiso   1.00
C174   C     0.74983   0.54228   0.27958   0.00000  Uiso   1.00
H113   H     0.82714   0.54620   0.22862   0.00000  Uiso   1.00
H114   H     0.86587   0.62336   0.24938   0.00000  Uiso   1.00
H115   H     0.75462   0.59504   0.30934   0.00000  Uiso   1.00
H116   H     0.71604   0.51901   0.28871   0.00000  Uiso   1.00
C175   C     0.77256   0.67900   0.26142   0.00000  Uiso   1.00
C176   C     0.81096   0.70145   0.27905   0.00000  Uiso   1.00
C177   C     0.82679   0.74628   0.28439   0.00000  Uiso   1.00
C178   C     0.80557   0.76711   0.27319   0.00000  Uiso   1.00
C179   C     0.76727   0.74408   0.25587   0.00000  Uiso   1.00
C180   C     0.75121   0.69965   0.25008   0.00000  Uiso   1.00
Si9    Si    0.84046   0.67375   0.29535   0.00000  Uiso   1.00
C181   C     0.89814   0.70365   0.28060   0.00000  Uiso   1.00
C182   C     0.92952   0.69617   0.29441   0.00000  Uiso   1.00
C183   C     0.97113   0.71596   0.28287   0.00000  Uiso   1.00
C184   C     0.98368   0.74460   0.25684   0.00000  Uiso   1.00
C185   C     0.95306   0.75269   0.24292   0.00000  Uiso   1.00
C186   C     0.91144   0.73263   0.25450   0.00000  Uiso   1.00
C187   C     0.82970   0.70129   0.35938   0.00000  Uiso   1.00
C188   C     0.82953   0.70082   0.39272   0.00000  Uiso   1.00
C189   C     0.83872   0.67261   0.41018   0.00000  Uiso   1.00
C190   C     0.84816   0.64487   0.39191   0.00000  Uiso   1.00
C191   C     0.84825   0.64529   0.35859   0.00000  Uiso   1.00
C192   C     0.83910   0.67360   0.34113   0.00000  Uiso   1.00
Si10   Si    0.83853   0.67242   0.45589   0.00000  Uiso   1.00
C193   C     0.76303   0.52780   0.49565   0.00000  Uiso   1.00
C194   C     0.79043   0.56296   0.51537   0.00000  Uiso   1.00
C195   C     0.81244   0.60487   0.50322   0.00000  Uiso   1.00
C196   C     0.80831   0.61399   0.47092   0.00000  Uiso   1.00
C197   C     0.78042   0.57821   0.45156   0.00000  Uiso   1.00
C198   C     0.75838   0.53617   0.46353   0.00000  Uiso   1.00
C199   C     0.81032   0.70233   0.47087   0.00000  Uiso   1.00
C200   C     0.83197   0.74697   0.47892   0.00000  Uiso   1.00
C201   C     0.81033   0.76781   0.48950   0.00000  Uiso   1.00
C202   C     0.76561   0.74516   0.49215   0.00000  Uiso   1.00
C203   C     0.74343   0.70095   0.48365   0.00000  Uiso   1.00
C204   C     0.76529   0.68018   0.47346   0.00000  Uiso   1.00
C205   C     0.90707   0.72155   0.50185   0.00000  Uiso   1.00
C206   C     0.94866   0.74132   0.51353   0.00000  Uiso   1.00
C207   C     0.98116   0.73992   0.49602   0.00000  Uiso   1.00
C208   C     0.97024   0.71773   0.46651   0.00000  Uiso   1.00
C209   C     0.92872   0.69854   0.45477   0.00000  Uiso   1.00
C210   C     0.89565   0.69988   0.47190   0.00000  Uiso   1.00
H117   H     0.75809   0.64268   0.25607   0.00000  Uiso   1.00
H118   H     0.85798   0.76653   0.29831   0.00000  Uiso   1.00
H119   H     0.81931   0.80344   0.27806   0.00000  Uiso   1.00
H120   H     0.72014   0.68037   0.23583   0.00000  Uiso   1.00
H121   H     0.92097   0.67321   0.31577   0.00000  Uiso   1.00
H122   H     0.99565   0.70898   0.29461   0.00000  Uiso   1.00
H123   H     0.96225   0.77606   0.22176   0.00000  Uiso   1.00
H124   H     0.88766   0.74021   0.24221   0.00000  Uiso   1.00
H125   H     0.82207   0.72460   0.34600   0.00000  Uiso   1.00
H126   H     0.82178   0.72376   0.40679   0.00000  Uiso   1.00
H127   H     0.85601   0.62122   0.40453   0.00000  Uiso   1.00
H128   H     0.85588   0.62227   0.34451   0.00000  Uiso   1.00
H129   H     0.79481   0.55724   0.54173   0.00000  Uiso   1.00
H130   H     0.83475   0.63330   0.51952   0.00000  Uiso   1.00
H131   H     0.77544   0.58338   0.42521   0.00000  Uiso   1.00
H132   H     0.73622   0.50821   0.44683   0.00000  Uiso   1.00
H133   H     0.86841   0.76708   0.47681   0.00000  Uiso   1.00
H134   H     0.82900   0.80394   0.49619   0.00000  Uiso   1.00
H135   H     0.70689   0.68157   0.48507   0.00000  Uiso   1.00
H136   H     0.74569   0.64400   0.46707   0.00000  Uiso   1.00
H137   H     0.88083   0.72252   0.51662   0.00000  Uiso   1.00
H138   H     0.95679   0.75905   0.53774   0.00000  Uiso   1.00
H139   H     0.99570   0.71526   0.45177   0.00000  Uiso   1.00
H140   H     0.92046   0.68095   0.43050   0.00000  Uiso   1.00
C211   C     0.73985   0.98297   0.00820   0.00000  Uiso   1.00
C212   C     0.69810   0.95358   0.99800   0.00000  Uiso   1.00
C213   C     0.67671   0.91112   0.00921   0.00000  Uiso   1.00
C214   C     0.69581   0.89571   0.03098   0.00000  Uiso   1.00
C215   C     0.73763   0.92607   0.04138   0.00000  Uiso   1.00
C216   C     0.75915   0.96858   0.03037   0.00000  Uiso   1.00
H141   H     0.68125   0.96445   0.98025   0.00000  Uiso   1.00
H142   H     0.64257   0.88753   0.00078   0.00000  Uiso   1.00
H143   H     0.75476   0.91588   0.05941   0.00000  Uiso   1.00
H144   H     0.79295   0.99196   0.03955   0.00000  Uiso   1.00
C217   C     0.73694   0.83214   0.00948   0.00000  Uiso   1.00
C218   C     0.69920   0.81006   0.02778   0.00000  Uiso   1.00
C219   C     0.68373   0.76542   0.03328   0.00000  Uiso   1.00
C220   C     0.70488   0.74451   0.02183   0.00000  Uiso   1.00
C221   C     0.74263   0.76717   0.00390   0.00000  Uiso   1.00
C222   C     0.75808   0.81132   0.99772   0.00000  Uiso   1.00
Si11   Si    0.66951   0.83710   0.04535   0.00000  Uiso   1.00
C223   C     0.61147   0.80586   0.03148   0.00000  Uiso   1.00
C224   C     0.57613   0.78737   0.05245   0.00000  Uiso   1.00
C225   C     0.53429   0.76568   0.04116   0.00000  Uiso   1.00
C226   C     0.52557   0.76170   0.00814   0.00000  Uiso   1.00
C227   C     0.56036   0.77953   0.98688   0.00000  Uiso   1.00
C228   C     0.60207   0.80072   0.99831   0.00000  Uiso   1.00
C229   C     0.68645   0.81302   0.10858   0.00000  Uiso   1.00
C230   C     0.68654   0.81299   0.14194   0.00000  Uiso   1.00
C231   C     0.67203   0.83672   0.16000   0.00000  Uiso   1.00
C232   C     0.65742   0.86062   0.14239   0.00000  Uiso   1.00
C233   C     0.65722   0.86054   0.10909   0.00000  Uiso   1.00
C234   C     0.67166   0.83663   0.09101   0.00000  Uiso   1.00
Si12   Si    0.67115   0.83678   0.20569   0.00000  Uiso   1.00
C235   C     0.74573   0.98264   0.24472   0.00000  Uiso   1.00
C236   C     0.71863   0.94806   0.26471   0.00000  Uiso   1.00
C237   C     0.69667   0.90575   0.25296   0.00000  Uiso   1.00
C238   C     0.70039   0.89553   0.22076   0.00000  Uiso   1.00
C239   C     0.72790   0.93079   0.20108   0.00000  Uiso   1.00
C240   C     0.75002   0.97324   0.21267   0.00000  Uiso   1.00
C241   C     0.69976   0.80798   0.22166   0.00000  Uiso   1.00
C242   C     0.67789   0.76478   0.23282   0.00000  Uiso   1.00
C243   C     0.69951   0.74423   0.24379   0.00000  Uiso   1.00
C244   C     0.74433   0.76595   0.24407   0.00000  Uiso   1.00
C245   C     0.76671   0.80889   0.23294   0.00000  Uiso   1.00
C246   C     0.74489   0.82925   0.22207   0.00000  Uiso   1.00
C247   C     0.60421   0.79792   0.25347   0.00000  Uiso   1.00
C248   C     0.56268   0.77783   0.26518   0.00000  Uiso   1.00
C249   C     0.52793   0.76577   0.24445   0.00000  Uiso   1.00
C250   C     0.53639   0.77437   0.21165   0.00000  Uiso   1.00
C251   C     0.57807   0.79476   0.20013   0.00000  Uiso   1.00
C252   C     0.61350   0.80747   0.22058   0.00000  Uiso   1.00
H145   H     0.75102   0.86826   0.00392   0.00000  Uiso   1.00
H146   H     0.65289   0.74540   0.04755   0.00000  Uiso   1.00
H147   H     0.69156   0.70839   0.02698   0.00000  Uiso   1.00
H148   H     0.78850   0.83022   0.98278   0.00000  Uiso   1.00
H149   H     0.58147   0.79000   0.07961   0.00000  Uiso   1.00
H150   H     0.50637   0.75076   0.05887   0.00000  Uiso   1.00
H151   H     0.55450   0.77668   0.95978   0.00000  Uiso   1.00
H152   H     0.62927   0.81423   0.97996   0.00000  Uiso   1.00
H153   H     0.69861   0.79351   0.09466   0.00000  Uiso   1.00
H154   H     0.69862   0.79333   0.15547   0.00000  Uiso   1.00
H155   H     0.64534   0.88072   0.15558   0.00000  Uiso   1.00
H156   H     0.64514   0.88020   0.09555   0.00000  Uiso   1.00
H157   H     0.71444   0.95457   0.29101   0.00000  Uiso   1.00
H158   H     0.67470   0.87782   0.26953   0.00000  Uiso   1.00
H159   H     0.73251   0.92486   0.17474   0.00000  Uiso   1.00
H160   H     0.77193   0.00067   0.19572   0.00000  Uiso   1.00
H161   H     0.64130   0.74563   0.23301   0.00000  Uiso   1.00
H162   H     0.68072   0.70917   0.25274   0.00000  Uiso   1.00
H163   H     0.80331   0.82749   0.23276   0.00000  Uiso   1.00
H164   H     0.76458   0.86431   0.21327   0.00000  Uiso   1.00
H165   H     0.63223   0.80729   0.27062   0.00000  Uiso   1.00
H166   H     0.55649   0.77093   0.29202   0.00000  Uiso   1.00
H167   H     0.50879   0.76457   0.19399   0.00000  Uiso   1.00
H168   H     0.58446   0.80171   0.17331   0.00000  Uiso   1.00
C253   C     0.26894   0.02776   0.75711   0.00000  Uiso   1.00
C254   C     0.31051   0.05715   0.74671   0.00000  Uiso   1.00
C255   C     0.33198   0.09969   0.75813   0.00000  Uiso   1.00
C256   C     0.31322   0.11506   0.78051   0.00000  Uiso   1.00
C257   C     0.27151   0.08478   0.79096   0.00000  Uiso   1.00
C258   C     0.24983   0.04228   0.77958   0.00000  Uiso   1.00
H169   H     0.32714   0.04620   0.72862   0.00000  Uiso   1.00
H170   H     0.36587   0.12336   0.74938   0.00000  Uiso   1.00
H171   H     0.25462   0.09504   0.80934   0.00000  Uiso   1.00
H172   H     0.21604   0.01901   0.78871   0.00000  Uiso   1.00
C259   C     0.27256   0.17900   0.76142   0.00000  Uiso   1.00
C260   C     0.31096   0.20145   0.77905   0.00000  Uiso   1.00
C261   C     0.32679   0.24628   0.78439   0.00000  Uiso   1.00
C262   C     0.30557   0.26711   0.77319   0.00000  Uiso   1.00
C263   C     0.26727   0.24408   0.75587   0.00000  Uiso   1.00
C264   C     0.25121   0.19965   0.75008   0.00000  Uiso   1.00
Si13   Si    0.34046   0.17375   0.79535   0.00000  Uiso   1.00
C265   C     0.39814   0.20365   0.78060   0.00000  Uiso   1.00
C266   C     0.42952   0.19617   0.79441   0.00000  Uiso   1.00
C267   C     0.47113   0.21596   0.78288   0.00000  Uiso   1.00
C268   C     0.48368   0.24460   0.75684   0.00000  Uiso   1.00
C269   C     0.45306   0.25269   0.74292   0.00000  Uiso   1.00
C270   C     0.41143   0.23263   0.75450   0.00000  Uiso   1.00
C271   C     0.32970   0.20129   0.85938   0.00000  Uiso   1.00
C272   C     0.32953   0.20082   0.89272   0.00000  Uiso   1.00
C273   C     0.33872   0.17261   0.91018   0.00000  Uiso   1.00
C274   C     0.34816   0.14487   0.89191   0.00000  Uiso   1.00
C275   C     0.34825   0.14529   0.85859   0.00000  Uiso   1.00
C276   C     0.33910   0.17360   0.84113   0.00000  Uiso   1.00
Si14   Si    0.33853   0.17242   0.95589   0.00000  Uiso   1.00
C277   C     0.26303   0.02780   0.99565   0.00000  Uiso   1.00
C278   C     0.29043   0.06296   0.01537   0.00000  Uiso   1.00
C279   C     0.31244   0.10487   0.00322   0.00000  Uiso   1.00
C280   C     0.30831   0.11399   0.97092   0.00000  Uiso   1.00
C281   C     0.28042   0.07821   0.95156   0.00000  Uiso   1.00
C282   C     0.25838   0.03617   0.96353   0.00000  Uiso   1.00
C283   C     0.31032   0.20233   0.97087   0.00000  Uiso   1.00
C284   C     0.33197   0.24697   0.97892   0.00000  Uiso   1.00
C285   C     0.31033   0.26781   0.98950   0.00000  Uiso   1.00
C286   C     0.26560   0.24516   0.99215   0.00000  Uiso   1.00
C287   C     0.24343   0.20095   0.98365   0.00000  Uiso   1.00
C288   C     0.26529   0.18018   0.97346   0.00000  Uiso   1.00
C289   C     0.40707   0.22155   0.00185   0.00000  Uiso   1.00
C290   C     0.44866   0.24132   0.01353   0.00000  Uiso   1.00
C291   C     0.48116   0.23992   0.99603   0.00000  Uiso   1.00
C292   C     0.47024   0.21773   0.96651   0.00000  Uiso   1.00
C293   C     0.42872   0.19854   0.95477   0.00000  Uiso   1.00
C294   C     0.39565   0.19988   0.97190   0.00000  Uiso   1.00
H173   H     0.25809   0.14268   0.75607   0.00000  Uiso   1.00
H174   H     0.35798   0.26653   0.79831   0.00000  Uiso   1.00
H175   H     0.31931   0.30344   0.77806   0.00000  Uiso   1.00
H176   H     0.22014   0.18037   0.73583   0.00000  Uiso   1.00
H177   H     0.42096   0.17320   0.81576   0.00000  Uiso   1.00
H178   H     0.49565   0.20899   0.79463   0.00000  Uiso   1.00
H179   H     0.46225   0.27605   0.72176   0.00000  Uiso   1.00
H180   H     0.38764   0.24021   0.74222   0.00000  Uiso   1.00
H181   H     0.32207   0.22460   0.84600   0.00000  Uiso   1.00
H182   H     0.32178   0.22376   0.90679   0.00000  Uiso   1.00
H183   H     0.35601   0.12122   0.90453   0.00000  Uiso   1.00
H184   H     0.35588   0.12227   0.84451   0.00000  Uiso   1.00
H185   H     0.29481   0.05724   0.04173   0.00000  Uiso   1.00
H186   H     0.33475   0.13330   0.01952   0.00000  Uiso   1.00
H187   H     0.27544   0.08338   0.92521   0.00000  Uiso   1.00
H188   H     0.23622   0.00821   0.94683   0.00000  Uiso   1.00
H189   H     0.36841   0.26708   0.97681   0.00000  Uiso   1.00
H190   H     0.32900   0.30394   0.99619   0.00000  Uiso   1.00
H191   H     0.20689   0.18157   0.98507   0.00000  Uiso   1.00
H192   H     0.24569   0.14400   0.96707   0.00000  Uiso   1.00
H193   H     0.38083   0.22252   0.01662   0.00000  Uiso   1.00
H194   H     0.45679   0.25906   0.03774   0.00000  Uiso   1.00
H195   H     0.49570   0.21527   0.95176   0.00000  Uiso   1.00
H196   H     0.42046   0.18095   0.93050   0.00000  Uiso   1.00
C295   C     0.76894   0.02776   0.75711   0.00000  Uiso   1.00
C296   C     0.81051   0.05715   0.74671   0.00000  Uiso   1.00
C297   C     0.83198   0.09969   0.75813   0.00000  Uiso   1.00
C298   C     0.81322   0.11506   0.78051   0.00000  Uiso   1.00
C299   C     0.77151   0.08478   0.79096   0.00000  Uiso   1.00
C300   C     0.74983   0.04228   0.77958   0.00000  Uiso   1.00
H197   H     0.82714   0.04620   0.72862   0.00000  Uiso   1.00
H198   H     0.86587   0.12336   0.74938   0.00000  Uiso   1.00
H199   H     0.75462   0.09504   0.80934   0.00000  Uiso   1.00
H200   H     0.71604   0.01901   0.78871   0.00000  Uiso   1.00
C301   C     0.77256   0.17900   0.76142   0.00000  Uiso   1.00
C302   C     0.81096   0.20145   0.77905   0.00000  Uiso   1.00
C303   C     0.82679   0.24628   0.78439   0.00000  Uiso   1.00
C304   C     0.80557   0.26711   0.77319   0.00000  Uiso   1.00
C305   C     0.76727   0.24408   0.75587   0.00000  Uiso   1.00
C306   C     0.75121   0.19965   0.75008   0.00000  Uiso   1.00
Si15   Si    0.84046   0.17375   0.79535   0.00000  Uiso   1.00
C307   C     0.89814   0.20365   0.78060   0.00000  Uiso   1.00
C308   C     0.92952   0.19617   0.79441   0.00000  Uiso   1.00
C309   C     0.97113   0.21596   0.78288   0.00000  Uiso   1.00
C310   C     0.98368   0.24460   0.75684   0.00000  Uiso   1.00
C311   C     0.95306   0.25269   0.74292   0.00000  Uiso   1.00
C312   C     0.91144   0.23263   0.75450   0.00000  Uiso   1.00
C313   C     0.82970   0.20129   0.85938   0.00000  Uiso   1.00
C314   C     0.82953   0.20082   0.89272   0.00000  Uiso   1.00
C315   C     0.83872   0.17261   0.91018   0.00000  Uiso   1.00
C316   C     0.84816   0.14487   0.89191   0.00000  Uiso   1.00
C317   C     0.84825   0.14529   0.85859   0.00000  Uiso   1.00
C318   C     0.83910   0.17360   0.84113   0.00000  Uiso   1.00
Si16   Si    0.83853   0.17242   0.95589   0.00000  Uiso   1.00
C319   C     0.76303   0.02780   0.99565   0.00000  Uiso   1.00
C320   C     0.79043   0.06296   0.01537   0.00000  Uiso   1.00
C321   C     0.81244   0.10487   0.00322   0.00000  Uiso   1.00
C322   C     0.80831   0.11399   0.97092   0.00000  Uiso   1.00
C323   C     0.78042   0.07821   0.95156   0.00000  Uiso   1.00
C324   C     0.75838   0.03617   0.96353   0.00000  Uiso   1.00
C325   C     0.81032   0.20233   0.97087   0.00000  Uiso   1.00
C326   C     0.83197   0.24697   0.97892   0.00000  Uiso   1.00
C327   C     0.81033   0.26781   0.98950   0.00000  Uiso   1.00
C328   C     0.76561   0.24516   0.99215   0.00000  Uiso   1.00
C329   C     0.74343   0.20095   0.98365   0.00000  Uiso   1.00
C330   C     0.76529   0.18018   0.97346   0.00000  Uiso   1.00
C331   C     0.90707   0.22155   0.00185   0.00000  Uiso   1.00
C332   C     0.94866   0.24132   0.01353   0.00000  Uiso   1.00
C333   C     0.98116   0.23992   0.99603   0.00000  Uiso   1.00
C334   C     0.97024   0.21773   0.96651   0.00000  Uiso   1.00
C335   C     0.92872   0.19854   0.95477   0.00000  Uiso   1.00
C336   C     0.89565   0.19988   0.97190   0.00000  Uiso   1.00
H201   H     0.75809   0.14268   0.75607   0.00000  Uiso   1.00
H202   H     0.85798   0.26653   0.79831   0.00000  Uiso   1.00
H203   H     0.81931   0.30344   0.77806   0.00000  Uiso   1.00
H204   H     0.72014   0.18037   0.73583   0.00000  Uiso   1.00
H205   H     0.92096   0.17320   0.81576   0.00000  Uiso   1.00
H206   H     0.99565   0.20899   0.79463   0.00000  Uiso   1.00
H207   H     0.96225   0.27606   0.72176   0.00000  Uiso   1.00
H208   H     0.88766   0.24021   0.74221   0.00000  Uiso   1.00
H209   H     0.82207   0.22460   0.84600   0.00000  Uiso   1.00
H210   H     0.82178   0.22376   0.90679   0.00000  Uiso   1.00
H211   H     0.85601   0.12122   0.90453   0.00000  Uiso   1.00
H212   H     0.85588   0.12227   0.84451   0.00000  Uiso   1.00
H213   H     0.79481   0.05724   0.04173   0.00000  Uiso   1.00
H214   H     0.83475   0.13330   0.01952   0.00000  Uiso   1.00
H215   H     0.77544   0.08338   0.92521   0.00000  Uiso   1.00
H216   H     0.73622   0.00821   0.94683   0.00000  Uiso   1.00
H217   H     0.86841   0.26708   0.97681   0.00000  Uiso   1.00
H218   H     0.82900   0.30394   0.99619   0.00000  Uiso   1.00
H219   H     0.70689   0.18157   0.98507   0.00000  Uiso   1.00
H220   H     0.74569   0.14400   0.96707   0.00000  Uiso   1.00
H221   H     0.88083   0.22252   0.01662   0.00000  Uiso   1.00
H222   H     0.95679   0.25906   0.03774   0.00000  Uiso   1.00
H223   H     0.99570   0.21527   0.95176   0.00000  Uiso   1.00
H224   H     0.92046   0.18095   0.93050   0.00000  Uiso   1.00
C337   C     0.73985   0.48297   0.50820   0.00000  Uiso   1.00
C338   C     0.69810   0.45358   0.49800   0.00000  Uiso   1.00
C339   C     0.67671   0.41112   0.50921   0.00000  Uiso   1.00
C340   C     0.69581   0.39571   0.53098   0.00000  Uiso   1.00
C341   C     0.73763   0.42607   0.54138   0.00000  Uiso   1.00
C342   C     0.75915   0.46858   0.53037   0.00000  Uiso   1.00
H225   H     0.68125   0.46445   0.48025   0.00000  Uiso   1.00
H226   H     0.64257   0.38753   0.50078   0.00000  Uiso   1.00
H227   H     0.75476   0.41588   0.55941   0.00000  Uiso   1.00
H228   H     0.79295   0.49196   0.53955   0.00000  Uiso   1.00
C343   C     0.73694   0.33214   0.50948   0.00000  Uiso   1.00
C344   C     0.69920   0.31006   0.52778   0.00000  Uiso   1.00
C345   C     0.68373   0.26542   0.53328   0.00000  Uiso   1.00
C346   C     0.70488   0.24451   0.52183   0.00000  Uiso   1.00
C347   C     0.74263   0.26717   0.50390   0.00000  Uiso   1.00
C348   C     0.75808   0.31132   0.49772   0.00000  Uiso   1.00
Si17   Si    0.66951   0.33710   0.54535   0.00000  Uiso   1.00
C349   C     0.61147   0.30586   0.53148   0.00000  Uiso   1.00
C350   C     0.57613   0.28737   0.55245   0.00000  Uiso   1.00
C351   C     0.53429   0.26568   0.54116   0.00000  Uiso   1.00
C352   C     0.52557   0.26170   0.50814   0.00000  Uiso   1.00
C353   C     0.56036   0.27953   0.48688   0.00000  Uiso   1.00
C354   C     0.60207   0.30072   0.49831   0.00000  Uiso   1.00
C355   C     0.68645   0.31302   0.60858   0.00000  Uiso   1.00
C356   C     0.68654   0.31299   0.64194   0.00000  Uiso   1.00
C357   C     0.67203   0.33672   0.66000   0.00000  Uiso   1.00
C358   C     0.65742   0.36062   0.64239   0.00000  Uiso   1.00
C359   C     0.65722   0.36054   0.60909   0.00000  Uiso   1.00
C360   C     0.67166   0.33663   0.59101   0.00000  Uiso   1.00
Si18   Si    0.67115   0.33678   0.70569   0.00000  Uiso   1.00
C361   C     0.74573   0.48264   0.74472   0.00000  Uiso   1.00
C362   C     0.71863   0.44806   0.76471   0.00000  Uiso   1.00
C363   C     0.69667   0.40575   0.75296   0.00000  Uiso   1.00
C364   C     0.70039   0.39553   0.72076   0.00000  Uiso   1.00
C365   C     0.72790   0.43079   0.70108   0.00000  Uiso   1.00
C366   C     0.75002   0.47324   0.71267   0.00000  Uiso   1.00
C367   C     0.69976   0.30798   0.72166   0.00000  Uiso   1.00
C368   C     0.67789   0.26478   0.73282   0.00000  Uiso   1.00
C369   C     0.69951   0.24423   0.74379   0.00000  Uiso   1.00
C370   C     0.74433   0.26595   0.74407   0.00000  Uiso   1.00
C371   C     0.76671   0.30889   0.73294   0.00000  Uiso   1.00
C372   C     0.74489   0.32925   0.72207   0.00000  Uiso   1.00
C373   C     0.60421   0.29792   0.75347   0.00000  Uiso   1.00
C374   C     0.56268   0.27783   0.76518   0.00000  Uiso   1.00
C375   C     0.52793   0.26577   0.74445   0.00000  Uiso   1.00
C376   C     0.53639   0.27437   0.71165   0.00000  Uiso   1.00
C377   C     0.57807   0.29476   0.70013   0.00000  Uiso   1.00
C378   C     0.61350   0.30747   0.72058   0.00000  Uiso   1.00
H229   H     0.75102   0.36826   0.50392   0.00000  Uiso   1.00
H230   H     0.65289   0.24540   0.54755   0.00000  Uiso   1.00
H231   H     0.69156   0.20839   0.52698   0.00000  Uiso   1.00
H232   H     0.78850   0.33022   0.48278   0.00000  Uiso   1.00
H233   H     0.58147   0.29000   0.57961   0.00000  Uiso   1.00
H234   H     0.50637   0.25076   0.55887   0.00000  Uiso   1.00
H235   H     0.55450   0.27668   0.45978   0.00000  Uiso   1.00
H236   H     0.62927   0.31423   0.47996   0.00000  Uiso   1.00
H237   H     0.69861   0.29351   0.59466   0.00000  Uiso   1.00
H238   H     0.69862   0.29333   0.65547   0.00000  Uiso   1.00
H239   H     0.64534   0.38072   0.65558   0.00000  Uiso   1.00
H240   H     0.64514   0.38020   0.59555   0.00000  Uiso   1.00
H241   H     0.71444   0.45457   0.79101   0.00000  Uiso   1.00
H242   H     0.67470   0.37782   0.76953   0.00000  Uiso   1.00
H243   H     0.73251   0.42486   0.67474   0.00000  Uiso   1.00
H244   H     0.77193   0.50067   0.69572   0.00000  Uiso   1.00
H245   H     0.64130   0.24563   0.73301   0.00000  Uiso   1.00
H246   H     0.68072   0.20917   0.75274   0.00000  Uiso   1.00
H247   H     0.80331   0.32749   0.73276   0.00000  Uiso   1.00
H248   H     0.76458   0.36431   0.71327   0.00000  Uiso   1.00
H249   H     0.63223   0.30729   0.77062   0.00000  Uiso   1.00
H250   H     0.55649   0.27093   0.79202   0.00000  Uiso   1.00
H251   H     0.50879   0.26457   0.69399   0.00000  Uiso   1.00
H252   H     0.58446   0.30171   0.67331   0.00000  Uiso   1.00
C379   C     0.26894   0.52776   0.75711   0.00000  Uiso   1.00
C380   C     0.31051   0.55715   0.74671   0.00000  Uiso   1.00
C381   C     0.33198   0.59969   0.75813   0.00000  Uiso   1.00
C382   C     0.31322   0.61506   0.78051   0.00000  Uiso   1.00
C383   C     0.27151   0.58478   0.79096   0.00000  Uiso   1.00
C384   C     0.24983   0.54228   0.77958   0.00000  Uiso   1.00
H253   H     0.32714   0.54620   0.72862   0.00000  Uiso   1.00
H254   H     0.36587   0.62336   0.74938   0.00000  Uiso   1.00
H255   H     0.25462   0.59504   0.80934   0.00000  Uiso   1.00
H256   H     0.21604   0.51901   0.78871   0.00000  Uiso   1.00
C385   C     0.27256   0.67900   0.76142   0.00000  Uiso   1.00
C386   C     0.31096   0.70145   0.77905   0.00000  Uiso   1.00
C387   C     0.32679   0.74628   0.78439   0.00000  Uiso   1.00
C388   C     0.30557   0.76711   0.77319   0.00000  Uiso   1.00
C389   C     0.26727   0.74408   0.75587   0.00000  Uiso   1.00
C390   C     0.25121   0.69965   0.75008   0.00000  Uiso   1.00
Si19   Si    0.34046   0.67375   0.79535   0.00000  Uiso   1.00
C391   C     0.39814   0.70365   0.78060   0.00000  Uiso   1.00
C392   C     0.42952   0.69617   0.79441   0.00000  Uiso   1.00
C393   C     0.47113   0.71596   0.78288   0.00000  Uiso   1.00
C394   C     0.48368   0.74460   0.75684   0.00000  Uiso   1.00
C395   C     0.45306   0.75269   0.74292   0.00000  Uiso   1.00
C396   C     0.41143   0.73263   0.75450   0.00000  Uiso   1.00
C397   C     0.32970   0.70129   0.85938   0.00000  Uiso   1.00
C398   C     0.32953   0.70082   0.89272   0.00000  Uiso   1.00
C399   C     0.33872   0.67261   0.91018   0.00000  Uiso   1.00
C400   C     0.34816   0.64487   0.89191   0.00000  Uiso   1.00
C401   C     0.34825   0.64529   0.85859   0.00000  Uiso   1.00
C402   C     0.33910   0.67360   0.84113   0.00000  Uiso   1.00
Si20   Si    0.33853   0.67242   0.95589   0.00000  Uiso   1.00
C403   C     0.26303   0.52780   0.99565   0.00000  Uiso   1.00
C404   C     0.29043   0.56296   0.01537   0.00000  Uiso   1.00
C405   C     0.31244   0.60487   0.00322   0.00000  Uiso   1.00
C406   C     0.30831   0.61399   0.97092   0.00000  Uiso   1.00
C407   C     0.28042   0.57821   0.95156   0.00000  Uiso   1.00
C408   C     0.25838   0.53617   0.96353   0.00000  Uiso   1.00
C409   C     0.31032   0.70233   0.97087   0.00000  Uiso   1.00
C410   C     0.33197   0.74697   0.97892   0.00000  Uiso   1.00
C411   C     0.31033   0.76781   0.98950   0.00000  Uiso   1.00
C412   C     0.26560   0.74516   0.99215   0.00000  Uiso   1.00
C413   C     0.24343   0.70095   0.98365   0.00000  Uiso   1.00
C414   C     0.26529   0.68018   0.97346   0.00000  Uiso   1.00
C415   C     0.40707   0.72155   0.00185   0.00000  Uiso   1.00
C416   C     0.44866   0.74132   0.01353   0.00000  Uiso   1.00
C417   C     0.48116   0.73992   0.99603   0.00000  Uiso   1.00
C418   C     0.47024   0.71773   0.96651   0.00000  Uiso   1.00
C419   C     0.42872   0.69854   0.95477   0.00000  Uiso   1.00
C420   C     0.39565   0.69988   0.97190   0.00000  Uiso   1.00
H257   H     0.25809   0.64268   0.75607   0.00000  Uiso   1.00
H258   H     0.35798   0.76653   0.79831   0.00000  Uiso   1.00
H259   H     0.31931   0.80344   0.77806   0.00000  Uiso   1.00
H260   H     0.22014   0.68037   0.73583   0.00000  Uiso   1.00
H261   H     0.42096   0.67320   0.81576   0.00000  Uiso   1.00
H262   H     0.49565   0.70899   0.79463   0.00000  Uiso   1.00
H263   H     0.46225   0.77605   0.72176   0.00000  Uiso   1.00
H264   H     0.38764   0.74021   0.74222   0.00000  Uiso   1.00
H265   H     0.32207   0.72460   0.84600   0.00000  Uiso   1.00
H266   H     0.32178   0.72376   0.90679   0.00000  Uiso   1.00
H267   H     0.35601   0.62122   0.90453   0.00000  Uiso   1.00
H268   H     0.35588   0.62227   0.84451   0.00000  Uiso   1.00
H269   H     0.29481   0.55724   0.04173   0.00000  Uiso   1.00
H270   H     0.33475   0.63330   0.01952   0.00000  Uiso   1.00
H271   H     0.27544   0.58338   0.92521   0.00000  Uiso   1.00
H272   H     0.23622   0.50821   0.94683   0.00000  Uiso   1.00
H273   H     0.36841   0.76708   0.97681   0.00000  Uiso   1.00
H274   H     0.32900   0.80394   0.99619   0.00000  Uiso   1.00
H275   H     0.20689   0.68157   0.98507   0.00000  Uiso   1.00
H276   H     0.24569   0.64400   0.96707   0.00000  Uiso   1.00
H277   H     0.38083   0.72252   0.01662   0.00000  Uiso   1.00
H278   H     0.45679   0.75906   0.03774   0.00000  Uiso   1.00
H279   H     0.49570   0.71527   0.95176   0.00000  Uiso   1.00
H280   H     0.42046   0.68095   0.93050   0.00000  Uiso   1.00
C421   C     0.76894   0.52776   0.75711   0.00000  Uiso   1.00
C422   C     0.81051   0.55715   0.74671   0.00000  Uiso   1.00
C423   C     0.83198   0.59969   0.75813   0.00000  Uiso   1.00
C424   C     0.81322   0.61506   0.78051   0.00000  Uiso   1.00
C425   C     0.77151   0.58478   0.79096   0.00000  Uiso   1.00
C426   C     0.74983   0.54228   0.77958   0.00000  Uiso   1.00
H281   H     0.82714   0.54620   0.72862   0.00000  Uiso   1.00
H282   H     0.86587   0.62336   0.74938   0.00000  Uiso   1.00
H283   H     0.75462   0.59504   0.80934   0.00000  Uiso   1.00
H284   H     0.71604   0.51901   0.78871   0.00000  Uiso   1.00
C427   C     0.77256   0.67900   0.76142   0.00000  Uiso   1.00
C428   C     0.81096   0.70145   0.77905   0.00000  Uiso   1.00
C429   C     0.82679   0.74628   0.78439   0.00000  Uiso   1.00
C430   C     0.80557   0.76711   0.77319   0.00000  Uiso   1.00
C431   C     0.76727   0.74408   0.75587   0.00000  Uiso   1.00
C432   C     0.75121   0.69965   0.75008   0.00000  Uiso   1.00
Si21   Si    0.84046   0.67375   0.79535   0.00000  Uiso   1.00
C433   C     0.89814   0.70365   0.78060   0.00000  Uiso   1.00
C434   C     0.92952   0.69617   0.79441   0.00000  Uiso   1.00
C435   C     0.97113   0.71596   0.78288   0.00000  Uiso   1.00
C436   C     0.98368   0.74460   0.75684   0.00000  Uiso   1.00
C437   C     0.95306   0.75269   0.74292   0.00000  Uiso   1.00
C438   C     0.91144   0.73263   0.75450   0.00000  Uiso   1.00
C439   C     0.82970   0.70129   0.85938   0.00000  Uiso   1.00
C440   C     0.82953   0.70082   0.89272   0.00000  Uiso   1.00
C441   C     0.83872   0.67261   0.91018   0.00000  Uiso   1.00
C442   C     0.84816   0.64487   0.89191   0.00000  Uiso   1.00
C443   C     0.84825   0.64529   0.85859   0.00000  Uiso   1.00
C444   C     0.83910   0.67360   0.84113   0.00000  Uiso   1.00
Si22   Si    0.83853   0.67242   0.95589   0.00000  Uiso   1.00
C445   C     0.76303   0.52780   0.99565   0.00000  Uiso   1.00
C446   C     0.79043   0.56296   0.01537   0.00000  Uiso   1.00
C447   C     0.81244   0.60487   0.00322   0.00000  Uiso   1.00
C448   C     0.80831   0.61399   0.97092   0.00000  Uiso   1.00
C449   C     0.78042   0.57821   0.95156   0.00000  Uiso   1.00
C450   C     0.75838   0.53617   0.96353   0.00000  Uiso   1.00
C451   C     0.81032   0.70233   0.97087   0.00000  Uiso   1.00
C452   C     0.83197   0.74697   0.97892   0.00000  Uiso   1.00
C453   C     0.81033   0.76781   0.98950   0.00000  Uiso   1.00
C454   C     0.76561   0.74516   0.99215   0.00000  Uiso   1.00
C455   C     0.74343   0.70095   0.98365   0.00000  Uiso   1.00
C456   C     0.76529   0.68018   0.97346   0.00000  Uiso   1.00
C457   C     0.90707   0.72155   0.00185   0.00000  Uiso   1.00
C458   C     0.94866   0.74132   0.01353   0.00000  Uiso   1.00
C459   C     0.98116   0.73992   0.99602   0.00000  Uiso   1.00
C460   C     0.97024   0.71773   0.96651   0.00000  Uiso   1.00
C461   C     0.92872   0.69854   0.95477   0.00000  Uiso   1.00
C462   C     0.89565   0.69988   0.97190   0.00000  Uiso   1.00
H285   H     0.75809   0.64268   0.75607   0.00000  Uiso   1.00
H286   H     0.85798   0.76653   0.79831   0.00000  Uiso   1.00
H287   H     0.81931   0.80344   0.77806   0.00000  Uiso   1.00
H288   H     0.72014   0.68037   0.73583   0.00000  Uiso   1.00
H289   H     0.92096   0.67320   0.81576   0.00000  Uiso   1.00
H290   H     0.99565   0.70899   0.79463   0.00000  Uiso   1.00
H291   H     0.96225   0.77606   0.72176   0.00000  Uiso   1.00
H292   H     0.88766   0.74021   0.74221   0.00000  Uiso   1.00
H293   H     0.82207   0.72460   0.84600   0.00000  Uiso   1.00
H294   H     0.82178   0.72376   0.90679   0.00000  Uiso   1.00
H295   H     0.85601   0.62122   0.90453   0.00000  Uiso   1.00
H296   H     0.85588   0.62227   0.84451   0.00000  Uiso   1.00
H297   H     0.79481   0.55724   0.04173   0.00000  Uiso   1.00
H298   H     0.83475   0.63330   0.01952   0.00000  Uiso   1.00
H299   H     0.77544   0.58338   0.92521   0.00000  Uiso   1.00
H300   H     0.73622   0.50821   0.94683   0.00000  Uiso   1.00
H301   H     0.86841   0.76708   0.97681   0.00000  Uiso   1.00
H302   H     0.82900   0.80394   0.99619   0.00000  Uiso   1.00
H303   H     0.70689   0.68157   0.98507   0.00000  Uiso   1.00
H304   H     0.74569   0.64400   0.96707   0.00000  Uiso   1.00
H305   H     0.88083   0.72252   0.01662   0.00000  Uiso   1.00
H306   H     0.95679   0.75905   0.03774   0.00000  Uiso   1.00
H307   H     0.99570   0.71526   0.95177   0.00000  Uiso   1.00
H308   H     0.92046   0.68095   0.93050   0.00000  Uiso   1.00
C463   C     0.73985   0.98297   0.50820   0.00000  Uiso   1.00
C464   C     0.69810   0.95358   0.49800   0.00000  Uiso   1.00
C465   C     0.67671   0.91112   0.50921   0.00000  Uiso   1.00
C466   C     0.69581   0.89571   0.53098   0.00000  Uiso   1.00
C467   C     0.73763   0.92607   0.54138   0.00000  Uiso   1.00
C468   C     0.75915   0.96858   0.53037   0.00000  Uiso   1.00
H309   H     0.68125   0.96445   0.48025   0.00000  Uiso   1.00
H310   H     0.64257   0.88753   0.50078   0.00000  Uiso   1.00
H311   H     0.75476   0.91588   0.55941   0.00000  Uiso   1.00
H312   H     0.79295   0.99196   0.53955   0.00000  Uiso   1.00
C469   C     0.73694   0.83214   0.50948   0.00000  Uiso   1.00
C470   C     0.69920   0.81006   0.52778   0.00000  Uiso   1.00
C471   C     0.68373   0.76542   0.53328   0.00000  Uiso   1.00
C472   C     0.70488   0.74451   0.52183   0.00000  Uiso   1.00
C473   C     0.74263   0.76717   0.50390   0.00000  Uiso   1.00
C474   C     0.75808   0.81132   0.49772   0.00000  Uiso   1.00
Si23   Si    0.66951   0.83710   0.54535   0.00000  Uiso   1.00
C475   C     0.61147   0.80586   0.53148   0.00000  Uiso   1.00
C476   C     0.57613   0.78737   0.55245   0.00000  Uiso   1.00
C477   C     0.53429   0.76568   0.54116   0.00000  Uiso   1.00
C478   C     0.52557   0.76170   0.50814   0.00000  Uiso   1.00
C479   C     0.56036   0.77953   0.48688   0.00000  Uiso   1.00
C480   C     0.60207   0.80072   0.49831   0.00000  Uiso   1.00
C481   C     0.68645   0.81302   0.60858   0.00000  Uiso   1.00
C482   C     0.68654   0.81299   0.64194   0.00000  Uiso   1.00
C483   C     0.67203   0.83672   0.66000   0.00000  Uiso   1.00
C484   C     0.65742   0.86062   0.64239   0.00000  Uiso   1.00
C485   C     0.65722   0.86054   0.60909   0.00000  Uiso   1.00
C486   C     0.67166   0.83663   0.59101   0.00000  Uiso   1.00
Si24   Si    0.67115   0.83678   0.70569   0.00000  Uiso   1.00
C487   C     0.74573   0.98264   0.74472   0.00000  Uiso   1.00
C488   C     0.71863   0.94806   0.76471   0.00000  Uiso   1.00
C489   C     0.69667   0.90575   0.75296   0.00000  Uiso   1.00
C490   C     0.70039   0.89553   0.72076   0.00000  Uiso   1.00
C491   C     0.72790   0.93079   0.70108   0.00000  Uiso   1.00
C492   C     0.75002   0.97324   0.71267   0.00000  Uiso   1.00
C493   C     0.69976   0.80798   0.72166   0.00000  Uiso   1.00
C494   C     0.67789   0.76478   0.73282   0.00000  Uiso   1.00
C495   C     0.69951   0.74423   0.74379   0.00000  Uiso   1.00
C496   C     0.74433   0.76595   0.74407   0.00000  Uiso   1.00
C497   C     0.76671   0.80889   0.73294   0.00000  Uiso   1.00
C498   C     0.74489   0.82925   0.72206   0.00000  Uiso   1.00
C499   C     0.60421   0.79792   0.75347   0.00000  Uiso   1.00
C500   C     0.56268   0.77783   0.76518   0.00000  Uiso   1.00
C501   C     0.52793   0.76577   0.74445   0.00000  Uiso   1.00
C502   C     0.53639   0.77437   0.71165   0.00000  Uiso   1.00
C503   C     0.57807   0.79476   0.70013   0.00000  Uiso   1.00
C504   C     0.61350   0.80747   0.72058   0.00000  Uiso   1.00
H313   H     0.75102   0.86826   0.50392   0.00000  Uiso   1.00
H314   H     0.65289   0.74540   0.54755   0.00000  Uiso   1.00
H315   H     0.69156   0.70839   0.52698   0.00000  Uiso   1.00
H316   H     0.78850   0.83022   0.48278   0.00000  Uiso   1.00
H317   H     0.58147   0.79000   0.57961   0.00000  Uiso   1.00
H318   H     0.50637   0.75076   0.55887   0.00000  Uiso   1.00
H319   H     0.55450   0.77668   0.45978   0.00000  Uiso   1.00
H320   H     0.62927   0.81423   0.47996   0.00000  Uiso   1.00
H321   H     0.69861   0.79351   0.59466   0.00000  Uiso   1.00
H322   H     0.69862   0.79333   0.65547   0.00000  Uiso   1.00
H323   H     0.64534   0.88072   0.65558   0.00000  Uiso   1.00
H324   H     0.64514   0.88020   0.59555   0.00000  Uiso   1.00
H325   H     0.71444   0.95457   0.79101   0.00000  Uiso   1.00
H326   H     0.67470   0.87782   0.76953   0.00000  Uiso   1.00
H327   H     0.73251   0.92486   0.67474   0.00000  Uiso   1.00
H328   H     0.77193   0.00067   0.69572   0.00000  Uiso   1.00
H329   H     0.64130   0.74563   0.73301   0.00000  Uiso   1.00
H330   H     0.68072   0.70917   0.75274   0.00000  Uiso   1.00
H331   H     0.80331   0.82749   0.73277   0.00000  Uiso   1.00
H332   H     0.76457   0.86430   0.71325   0.00000  Uiso   1.00
H333   H     0.63223   0.80729   0.77062   0.00000  Uiso   1.00
H334   H     0.55649   0.77093   0.79202   0.00000  Uiso   1.00
H335   H     0.50879   0.76457   0.69399   0.00000  Uiso   1.00
H336   H     0.58446   0.80171   0.67331   0.00000  Uiso   1.00
H337   H     0.24517   0.99338   0.50589   0.00000  Uiso   1.00
H338   H     0.01530   0.75656   0.50591   0.00000  Uiso   1.00
H339   H     0.25149   0.99294   0.74729   0.00000  Uiso   1.00
H340   H     0.25002   0.76160   0.74689   0.00000  Uiso   1.00
H341   H     0.01806   0.76061   0.74755   0.00000  Uiso   1.00
H342   H     0.49092   0.74433   0.49927   0.00000  Uiso   1.00
H343   H     0.49388   0.74942   0.25445   0.00000  Uiso   1.00
H344   H     0.26360   0.51737   0.25470   0.00000  Uiso   1.00
H345   H     0.25149   0.99294   0.24729   0.00000  Uiso   1.00
H346   H     0.01807   0.76061   0.24755   0.00000  Uiso   1.00
H347   H     0.24517   0.99338   0.00589   0.00000  Uiso   1.00
H348   H     0.24828   0.76278   0.00103   0.00000  Uiso   1.00
H349   H     0.01530   0.75656   0.00591   0.00000  Uiso   1.00
H350   H     0.24828   0.26278   0.50103   0.00000  Uiso   1.00
H351   H     0.01530   0.25655   0.50593   0.00000  Uiso   1.00
H352   H     0.25002   0.26160   0.74689   0.00000  Uiso   1.00
H353   H     0.01806   0.26061   0.74755   0.00000  Uiso   1.00
H354   H     0.25149   0.49294   0.74729   0.00000  Uiso   1.00
loop_
_geom_bond_atom_site_label_1
_geom_bond_atom_site_label_2
_geom_bond_distance
_geom_bond_site_symmetry_2
_ccdc_geom_bond_type
C1     C2      1.397   .     D
C1     C6      1.398   .     S
C1     H345    1.140   1_545 S
C2     C3      1.384   .     S
C2     H1      1.140   .     S
C3     C4      1.405   .     D
C3     H2      1.140   .     S
C4     C5      1.408   .     S
C4     Si1     1.898   .     S
C5     C6      1.383   .     D
C5     H3      1.140   .     S
C6     H4      1.140   .     S
C7     C8      1.405   .     S
C7     C12     1.384   .     D
C7     H5      1.140   .     S
C8     C9      1.408   .     D
C8     Si1     1.898   .     S
C9     C10     1.384   .     S
C9     H6      1.140   .     S
C10    C11     1.398   .     D
C10    H7      1.140   .     S
C11    C12     1.397   .     S
C11    C76     1.473   .     S
C12    H8      1.140   .     S
Si1    C13     1.899   .     S
Si1    C24     1.902   .     S
C13    C14     1.407   .     D
C13    C18     1.406   .     S
C14    C15     1.383   .     S
C14    H9      1.140   .     S
C15    C16     1.398   .     D
C15    H10     1.140   .     S
C16    C17     1.397   .     S
C16    C165    1.472   .     S
C17    C18     1.384   .     D
C17    H11     1.140   .     S
C18    H12     1.140   .     S
C19    C20     1.385   .     S
C19    C24     1.404   .     D
C19    H13     1.140   .     S
C20    C21     1.405   .     D
C20    H14     1.140   .     S
C21    C22     1.407   .     S
C21    Si2     1.898   .     S
C22    C23     1.384   .     D
C22    H15     1.140   .     S
C23    C24     1.407   .     S
C23    H16     1.140   .     S
Si2    C28     1.900   .     S
Si2    C31     1.899   .     S
Si2    C42     1.900   .     S
C25    C26     1.398   .     S
C25    C30     1.397   .     D
C25    H337    1.140   1_545 S
C26    C27     1.383   .     D
C26    H17     1.140   .     S
C27    C28     1.407   .     S
C27    H18     1.140   .     S
C28    C29     1.405   .     D
C29    C30     1.384   .     S
C29    H19     1.140   .     S
C30    H20     1.140   .     S
C31    C32     1.406   .     S
C31    C36     1.407   .     D
C32    C33     1.384   .     D
C32    H21     1.140   .     S
C33    C34     1.398   .     S
C33    H22     1.140   .     S
C34    C35     1.398   .     D
C34    H350    1.140   .     S
C35    C36     1.383   .     S
C35    H23     1.140   .     S
C36    H24     1.140   .     S
C37    C38     1.384   .     D
C37    C42     1.407   .     S
C37    H25     1.140   .     S
C38    C39     1.398   .     S
C38    H26     1.140   .     S
C39    C40     1.398   .     D
C39    C352    1.472   .     S
C40    C41     1.384   .     S
C40    H27     1.140   .     S
C41    C42     1.406   .     D
C41    H28     1.140   .     S
C43    C44     1.397   1_554 S
C43    C48     1.398   .     D
C43    C403    1.473   1_554 S
C44    C43     1.397   1_556 S
C44    C45     1.385   1_556 D
C44    H29     1.140   .     S
C45    C44     1.385   1_554 D
C45    C46     1.405   .     S
C45    H30     1.140   .     S
C46    C47     1.408   .     D
C46    Si3     1.898   .     S
C47    C48     1.383   .     S
C47    H31     1.140   .     S
C48    H32     1.140   .     S
C49    C50     1.405   .     S
C49    C54     1.385   1_554 D
C49    H33     1.140   .     S
C50    C51     1.408   .     D
C50    Si3     1.899   .     S
C51    C52     1.383   .     S
C51    H34     1.140   .     S
C52    C53     1.398   .     D
C52    H35     1.140   .     S
C53    C54     1.397   1_554 S
C53    C286    1.473   1_554 S
C54    C49     1.385   1_556 D
C54    C53     1.397   1_556 S
C54    H36     1.140   .     S
Si3    C55     1.898   .     S
Si3    C66     1.899   .     S
C55    C56     1.405   .     D
C55    C60     1.408   1_554 S
C56    C57     1.385   .     S
C56    H37     1.140   .     S
C57    C58     1.398   .     D
C57    H38     1.140   .     S
C58    C59     1.399   1_554 S
C58    C333    1.472   1_454 S
C59    C58     1.399   1_556 S
C59    C60     1.383   .     D
C59    H39     1.140   .     S
C60    C55     1.408   1_556 S
C60    H40     1.140   .     S
C61    C62     1.385   .     D
C61    C66     1.404   .     S
C61    H41     1.140   .     S
C62    C63     1.404   .     S
C62    H42     1.140   .     S
C63    C64     1.408   .     D
C63    Si4     1.898   .     S
C64    C65     1.383   .     S
C64    H43     1.140   .     S
C65    C66     1.408   .     D
C65    H44     1.140   .     S
Si4    C70     1.902   .     S
Si4    C73     1.899   .     S
Si4    C84     1.900   .     S
C67    C68     1.397   .     S
C67    C72     1.397   .     D
C67    H344    1.140   .     S
C68    C69     1.383   .     D
C68    H45     1.140   .     S
C69    C70     1.407   .     S
C69    H46     1.140   .     S
C70    C71     1.406   .     D
C71    C72     1.385   .     S
C71    H47     1.140   .     S
C72    H48     1.140   .     S
C73    C74     1.405   .     S
C73    C78     1.407   .     D
C74    C75     1.384   .     D
C74    H49     1.140   .     S
C75    C76     1.397   .     S
C75    H50     1.140   .     S
C76    C77     1.398   .     D
C77    C78     1.383   .     S
C77    H51     1.140   .     S
C78    H52     1.140   .     S
C79    C80     1.383   .     D
C79    C84     1.408   .     S
C79    H53     1.140   .     S
C80    C81     1.397   .     S
C80    H54     1.140   .     S
C81    C82     1.397   .     D
C81    C100    1.472   1_455 S
C82    C83     1.384   .     S
C82    H55     1.140   .     S
C83    C84     1.405   .     D
C83    H56     1.140   .     S
C85    C86     1.397   .     D
C85    C90     1.398   .     S
C85    C235    1.473   1_545 S
C86    C87     1.384   .     S
C86    H57     1.140   .     S
C87    C88     1.405   .     D
C87    H58     1.140   .     S
C88    C89     1.408   .     S
C88    Si5     1.898   .     S
C89    C90     1.383   .     D
C89    H59     1.140   .     S
C90    H60     1.140   .     S
C91    C92     1.405   .     S
C91    C96     1.384   .     D
C91    H61     1.140   .     S
C92    C93     1.408   .     D
C92    Si5     1.898   .     S
C93    C94     1.384   .     S
C93    H62     1.140   .     S
C94    C95     1.398   .     D
C94    H63     1.140   .     S
C95    C96     1.397   .     S
C95    C160    1.473   .     S
C96    H64     1.140   .     S
Si5    C97     1.899   .     S
Si5    C108    1.902   .     S
C97    C98     1.407   .     D
C97    C102    1.406   .     S
C98    C99     1.383   .     S
C98    H65     1.140   .     S
C99    C100    1.398   .     D
C99    H66     1.140   .     S
C100   C81     1.472   1_655 S
C100   C101    1.397   .     S
C101   C102    1.384   .     D
C101   H67     1.140   .     S
C102   H68     1.140   .     S
C103   C104    1.385   .     D
C103   C108    1.404   .     S
C103   H69     1.140   .     S
C104   C105    1.405   .     S
C104   H70     1.140   .     S
C105   C106    1.407   .     D
C105   Si6     1.898   .     S
C106   C107    1.384   .     S
C106   H71     1.140   .     S
C107   C108    1.407   .     D
C107   H72     1.140   .     S
Si6    C112    1.900   .     S
Si6    C115    1.899   .     S
Si6    C126    1.900   .     S
C109   C110    1.398   .     S
C109   C114    1.397   .     D
C109   C463    1.473   1_545 S
C110   C111    1.383   .     D
C110   H73     1.140   .     S
C111   C112    1.407   .     S
C111   H74     1.140   .     S
C112   C113    1.405   .     D
C113   C114    1.384   .     S
C113   H75     1.140   .     S
C114   H76     1.140   .     S
C115   C116    1.406   .     S
C115   C120    1.407   .     D
C116   C117    1.384   .     D
C116   H77     1.140   .     S
C117   C118    1.397   .     S
C117   H78     1.140   .     S
C118   C119    1.398   .     D
C118   C347    1.473   .     S
C119   C120    1.383   .     S
C119   H79     1.140   .     S
C120   H80     1.140   .     S
C121   C122    1.384   .     S
C121   C126    1.407   .     D
C121   H81     1.140   .     S
C122   C123    1.398   .     D
C122   H82     1.140   .     S
C123   C124    1.398   .     S
C123   H351    1.140   1_655 S
C124   C125    1.384   .     D
C124   H83     1.140   .     S
C125   C126    1.406   .     S
C125   H84     1.140   .     S
C127   C128    1.397   1_554 S
C127   C132    1.398   .     D
C127   C445    1.473   1_554 S
C128   C127    1.397   1_556 S
C128   C129    1.385   1_556 D
C128   H85     1.140   .     S
C129   C128    1.385   1_554 D
C129   C130    1.404   .     S
C129   H86     1.140   .     S
C130   C131    1.408   .     D
C130   Si7     1.898   .     S
C131   C132    1.383   .     S
C131   H87     1.140   .     S
C132   H88     1.140   .     S
C133   C134    1.405   .     D
C133   C138    1.385   1_554 S
C133   H89     1.140   .     S
C134   C135    1.408   .     S
C134   Si7     1.899   .     S
C135   C136    1.383   .     D
C135   H90     1.140   .     S
C136   C137    1.398   .     S
C136   H91     1.140   .     S
C137   C138    1.397   1_554 D
C137   C328    1.473   1_554 S
C138   C133    1.385   1_556 S
C138   C137    1.397   1_556 D
C138   H92     1.140   .     S
Si7    C139    1.898   .     S
Si7    C150    1.899   .     S
C139   C140    1.405   .     D
C139   C144    1.408   1_554 S
C140   C141    1.385   .     S
C140   H93     1.140   .     S
C141   C142    1.398   .     D
C141   H94     1.140   .     S
C142   C143    1.399   1_554 S
C142   C291    1.472   1_554 S
C143   C142    1.399   1_556 S
C143   C144    1.383   .     D
C143   H95     1.140   .     S
C144   C139    1.408   1_556 S
C144   H96     1.140   .     S
C145   C146    1.385   .     S
C145   C150    1.404   .     D
C145   H97     1.140   .     S
C146   C147    1.404   .     D
C146   H98     1.140   .     S
C147   C148    1.408   .     S
C147   Si8     1.898   .     S
C148   C149    1.383   .     D
C148   H99     1.140   .     S
C149   C150    1.408   .     S
C149   H100    1.140   .     S
Si8    C154    1.902   .     S
Si8    C157    1.899   .     S
Si8    C168    1.900   .     S
C151   C152    1.397   .     S
C151   C156    1.397   .     D
C151   C169    1.473   .     S
C152   C153    1.383   .     D
C152   H101    1.140   .     S
C153   C154    1.407   .     S
C153   H102    1.140   .     S
C154   C155    1.406   .     D
C155   C156    1.385   .     S
C155   H103    1.140   .     S
C156   H104    1.140   .     S
C157   C158    1.405   .     S
C157   C162    1.407   .     D
C158   C159    1.384   .     D
C158   H105    1.140   .     S
C159   C160    1.397   .     S
C159   H106    1.140   .     S
C160   C161    1.398   .     D
C161   C162    1.383   .     S
C161   H107    1.140   .     S
C162   H108    1.140   .     S
C163   C164    1.383   .     S
C163   C168    1.408   .     D
C163   H109    1.140   .     S
C164   C165    1.397   .     D
C164   H110    1.140   .     S
C165   C166    1.397   .     S
C166   C167    1.384   .     D
C166   H111    1.140   .     S
C167   C168    1.405   .     S
C167   H112    1.140   .     S
C169   C170    1.397   .     S
C169   C174    1.398   .     D
C170   C171    1.384   .     D
C170   H113    1.140   .     S
C171   C172    1.405   .     S
C171   H114    1.140   .     S
C172   C173    1.408   .     D
C172   Si9     1.898   .     S
C173   C174    1.383   .     S
C173   H115    1.140   .     S
C174   H116    1.140   .     S
C175   C176    1.405   .     S
C175   C180    1.384   .     D
C175   H117    1.140   .     S
C176   C177    1.408   .     D
C176   Si9     1.898   .     S
C177   C178    1.384   .     S
C177   H118    1.140   .     S
C178   C179    1.398   .     D
C178   H119    1.140   .     S
C179   C180    1.397   .     S
C179   C244    1.473   .     S
C180   H120    1.140   .     S
Si9    C181    1.899   .     S
Si9    C192    1.902   .     S
C181   C182    1.407   .     D
C181   C186    1.406   .     S
C182   C183    1.383   .     S
C182   H121    1.140   .     S
C183   C184    1.398   .     D
C183   H122    1.140   .     S
C184   C185    1.397   .     S
C184   H346    1.140   1_655 S
C185   C186    1.384   .     D
C185   H123    1.140   .     S
C186   H124    1.140   .     S
C187   C188    1.385   .     S
C187   C192    1.404   .     D
C187   H125    1.140   .     S
C188   C189    1.405   .     D
C188   H126    1.140   .     S
C189   C190    1.407   .     S
C189   Si10    1.898   .     S
C190   C191    1.384   .     D
C190   H127    1.140   .     S
C191   C192    1.407   .     S
C191   H128    1.140   .     S
Si10   C196    1.900   .     S
Si10   C199    1.899   .     S
Si10   C210    1.900   .     S
C193   C194    1.398   .     S
C193   C198    1.397   .     D
C193   C337    1.473   .     S
C194   C195    1.383   .     D
C194   H129    1.140   .     S
C195   C196    1.407   .     S
C195   H130    1.140   .     S
C196   C197    1.405   .     D
C197   C198    1.384   .     S
C197   H131    1.140   .     S
C198   H132    1.140   .     S
C199   C200    1.406   .     D
C199   C204    1.407   .     S
C200   C201    1.384   .     S
C200   H133    1.140   .     S
C201   C202    1.397   .     D
C201   H134    1.140   .     S
C202   C203    1.398   .     S
C202   C473    1.473   .     S
C203   C204    1.383   .     D
C203   H135    1.140   .     S
C204   H136    1.140   .     S
C205   C206    1.384   .     S
C205   C210    1.407   .     D
C205   H137    1.140   .     S
C206   C207    1.398   .     D
C206   H138    1.140   .     S
C207   C208    1.398   .     S
C207   H338    1.140   1_655 S
C208   C209    1.384   .     D
C208   H139    1.140   .     S
C209   C210    1.406   .     S
C209   H140    1.140   .     S
C211   C212    1.397   1_554 S
C211   C216    1.398   .     D
C211   C319    1.473   1_564 S
C212   C211    1.397   1_556 S
C212   C213    1.385   1_556 D
C212   H141    1.140   .     S
C213   C212    1.385   1_554 D
C213   C214    1.405   .     S
C213   H142    1.140   .     S
C214   C215    1.408   .     D
C214   Si11    1.898   .     S
C215   C216    1.383   .     S
C215   H143    1.140   .     S
C216   H144    1.140   .     S
C217   C218    1.405   .     S
C217   C222    1.385   1_554 D
C217   H145    1.140   .     S
C218   C219    1.408   .     D
C218   Si11    1.899   .     S
C219   C220    1.383   .     S
C219   H146    1.140   .     S
C220   C221    1.398   .     D
C220   H147    1.140   .     S
C221   C222    1.397   1_554 S
C221   C454    1.473   1_554 S
C222   C221    1.397   1_556 S
C222   C217    1.385   1_556 D
C222   H148    1.140   .     S
Si11   C223    1.898   .     S
Si11   C234    1.899   .     S
C223   C224    1.405   .     D
C223   C228    1.408   1_554 S
C224   C225    1.385   .     S
C224   H149    1.140   .     S
C225   C226    1.398   .     D
C225   H150    1.140   .     S
C226   C227    1.399   1_554 S
C226   C417    1.472   1_554 S
C227   C226    1.399   1_556 S
C227   C228    1.383   .     D
C227   H151    1.140   .     S
C228   C223    1.408   1_556 S
C228   H152    1.140   .     S
C229   C230    1.385   .     S
C229   C234    1.404   .     D
C229   H153    1.140   .     S
C230   C231    1.404   .     D
C230   H154    1.140   .     S
C231   C232    1.408   .     S
C231   Si12    1.898   .     S
C232   C233    1.383   .     D
C232   H155    1.140   .     S
C233   C234    1.408   .     S
C233   H156    1.140   .     S
Si12   C238    1.902   .     S
Si12   C241    1.899   .     S
Si12   C252    1.900   .     S
C235   C85     1.473   1_565 S
C235   C236    1.397   .     S
C235   C240    1.397   .     D
C236   C237    1.383   .     D
C236   H157    1.140   .     S
C237   C238    1.407   .     S
C237   H158    1.140   .     S
C238   C239    1.406   .     D
C239   C240    1.385   .     S
C239   H159    1.140   .     S
C240   H160    1.140   1_565 S
C241   C242    1.405   .     S
C241   C246    1.407   .     D
C242   C243    1.384   .     D
C242   H161    1.140   .     S
C243   C244    1.397   .     S
C243   H162    1.140   .     S
C244   C245    1.398   .     D
C245   C246    1.383   .     S
C245   H163    1.140   .     S
C246   H164    1.140   .     S
C247   C248    1.383   .     S
C247   C252    1.408   .     D
C247   H165    1.140   .     S
C248   C249    1.397   .     D
C248   H166    1.140   .     S
C249   C250    1.397   .     S
C249   H343    1.140   .     S
C250   C251    1.384   .     D
C250   H167    1.140   .     S
C251   C252    1.405   .     S
C251   H168    1.140   .     S
H160   C240    1.140   1_545 S
C253   C254    1.397   .     D
C253   C258    1.398   .     S
C253   H339    1.140   1_545 S
C254   C255    1.384   .     S
C254   H169    1.140   .     S
C255   C256    1.405   .     D
C255   H170    1.140   .     S
C256   C257    1.408   .     S
C256   Si13    1.898   .     S
C257   C258    1.383   .     D
C257   H171    1.140   .     S
C258   H172    1.140   .     S
C259   C260    1.405   .     S
C259   C264    1.384   .     D
C259   H173    1.140   .     S
C260   C261    1.408   .     D
C260   Si13    1.898   .     S
C261   C262    1.384   .     S
C261   H174    1.140   .     S
C262   C263    1.398   .     D
C262   H175    1.140   .     S
C263   C264    1.397   .     S
C263   H352    1.140   .     S
C264   H176    1.140   .     S
Si13   C265    1.899   .     S
Si13   C276    1.902   .     S
C265   C266    1.407   .     D
C265   C270    1.406   .     S
C266   C267    1.383   .     S
C266   H177    1.140   .     S
C267   C268    1.398   .     D
C267   H178    1.140   .     S
C268   C269    1.397   .     S
C268   C375    1.472   .     S
C269   C270    1.384   .     D
C269   H179    1.140   .     S
C270   H180    1.140   .     S
C271   C272    1.385   .     S
C271   C276    1.404   .     D
C271   H181    1.140   .     S
C272   C273    1.405   .     D
C272   H182    1.140   .     S
C273   C274    1.407   .     S
C273   Si14    1.898   .     S
C274   C275    1.384   .     D
C274   H183    1.140   .     S
C275   C276    1.407   .     S
C275   H184    1.140   .     S
Si14   C280    1.900   .     S
Si14   C283    1.899   .     S
Si14   C294    1.900   .     S
C277   C278    1.398   1_556 D
C277   C282    1.397   .     S
C277   H347    1.140   1_546 S
C278   C277    1.398   1_554 D
C278   C279    1.383   .     S
C278   H185    1.140   .     S
C279   C280    1.407   1_554 D
C279   H186    1.140   .     S
C280   C279    1.407   1_556 D
C280   C281    1.405   .     S
C281   C282    1.384   .     D
C281   H187    1.140   .     S
C282   H188    1.140   .     S
C283   C284    1.406   .     D
C283   C288    1.407   .     S
C284   C285    1.384   .     S
C284   H189    1.140   .     S
C285   C286    1.398   .     D
C285   H190    1.140   .     S
C286   C53     1.473   1_556 S
C286   C287    1.398   .     S
C287   C288    1.383   .     D
C287   H191    1.140   .     S
C288   H192    1.140   .     S
C289   C290    1.384   .     D
C289   C294    1.407   1_554 S
C289   H193    1.140   .     S
C290   C291    1.398   1_554 S
C290   H194    1.140   .     S
C291   C142    1.472   1_556 S
C291   C290    1.398   1_556 S
C291   C292    1.398   .     D
C292   C293    1.384   .     S
C292   H195    1.140   .     S
C293   C294    1.406   .     D
C293   H196    1.140   .     S
C294   C289    1.407   1_556 S
C295   C296    1.397   .     S
C295   C300    1.398   .     D
C295   C487    1.473   1_545 S
C296   C297    1.384   .     D
C296   H197    1.140   .     S
C297   C298    1.405   .     S
C297   H198    1.140   .     S
C298   C299    1.408   .     D
C298   Si15    1.898   .     S
C299   C300    1.383   .     S
C299   H199    1.140   .     S
C300   H200    1.140   .     S
C301   C302    1.405   .     S
C301   C306    1.384   .     D
C301   H201    1.140   .     S
C302   C303    1.408   .     D
C302   Si15    1.898   .     S
C303   C304    1.384   .     S
C303   H202    1.140   .     S
C304   C305    1.398   .     D
C304   H203    1.140   .     S
C305   C306    1.397   .     S
C305   C370    1.473   .     S
C306   H204    1.140   .     S
Si15   C307    1.899   .     S
Si15   C318    1.902   .     S
C307   C308    1.407   .     D
C307   C312    1.406   .     S
C308   C309    1.383   .     S
C308   H205    1.140   .     S
C309   C310    1.398   .     D
C309   H206    1.140   .     S
C310   C311    1.397   .     S
C310   H353    1.140   1_655 S
C311   C312    1.384   .     D
C311   H207    1.140   .     S
C312   H208    1.140   .     S
C313   C314    1.385   .     S
C313   C318    1.404   .     D
C313   H209    1.140   .     S
C314   C315    1.405   .     D
C314   H210    1.140   .     S
C315   C316    1.407   .     S
C315   Si16    1.898   .     S
C316   C317    1.384   .     D
C316   H211    1.140   .     S
C317   C318    1.407   .     S
C317   H212    1.140   .     S
Si16   C322    1.900   .     S
Si16   C325    1.899   .     S
Si16   C336    1.900   .     S
C319   C211    1.473   1_546 S
C319   C320    1.398   1_556 S
C319   C324    1.397   .     D
C320   C319    1.398   1_554 S
C320   C321    1.383   .     D
C320   H213    1.140   .     S
C321   C322    1.407   1_554 S
C321   H214    1.140   .     S
C322   C321    1.407   1_556 S
C322   C323    1.405   .     D
C323   C324    1.384   .     S
C323   H215    1.140   .     S
C324   H216    1.140   .     S
C325   C326    1.406   .     D
C325   C330    1.407   .     S
C326   C327    1.384   .     S
C326   H217    1.140   .     S
C327   C328    1.397   .     D
C327   H218    1.140   .     S
C328   C137    1.473   1_556 S
C328   C329    1.398   .     S
C329   C330    1.383   .     D
C329   H219    1.140   .     S
C330   H220    1.140   .     S
C331   C332    1.384   .     S
C331   C336    1.407   1_554 D
C331   H221    1.140   .     S
C332   C333    1.398   1_554 D
C332   H222    1.140   .     S
C333   C58     1.472   1_656 S
C333   C332    1.398   1_556 D
C333   C334    1.398   .     S
C334   C335    1.384   .     D
C334   H223    1.140   .     S
C335   C336    1.406   .     S
C335   H224    1.140   .     S
C336   C331    1.407   1_556 D
C337   C338    1.397   .     S
C337   C342    1.398   .     D
C338   C339    1.385   .     D
C338   H225    1.140   .     S
C339   C340    1.405   .     S
C339   H226    1.140   .     S
C340   C341    1.408   .     D
C340   Si17    1.898   .     S
C341   C342    1.383   .     S
C341   H227    1.140   .     S
C342   H228    1.140   .     S
C343   C344    1.405   .     S
C343   C348    1.385   .     D
C343   H229    1.140   .     S
C344   C345    1.408   .     D
C344   Si17    1.899   .     S
C345   C346    1.383   .     S
C345   H230    1.140   .     S
C346   C347    1.398   .     D
C346   H231    1.140   .     S
C347   C348    1.397   .     S
C348   H232    1.140   .     S
Si17   C349    1.898   .     S
Si17   C360    1.899   .     S
C349   C350    1.405   .     D
C349   C354    1.408   .     S
C350   C351    1.385   .     S
C350   H233    1.140   .     S
C351   C352    1.398   .     D
C351   H234    1.140   .     S
C352   C353    1.399   .     S
C353   C354    1.383   .     D
C353   H235    1.140   .     S
C354   H236    1.140   .     S
C355   C356    1.385   .     S
C355   C360    1.404   .     D
C355   H237    1.140   .     S
C356   C357    1.404   .     D
C356   H238    1.140   .     S
C357   C358    1.408   .     S
C357   Si18    1.898   .     S
C358   C359    1.383   .     D
C358   H239    1.140   .     S
C359   C360    1.408   .     S
C359   H240    1.140   .     S
Si18   C364    1.902   .     S
Si18   C367    1.899   .     S
Si18   C378    1.900   .     S
C361   C362    1.397   .     S
C361   C366    1.397   .     D
C361   C421    1.473   .     S
C362   C363    1.383   .     D
C362   H241    1.140   .     S
C363   C364    1.407   .     S
C363   H242    1.140   .     S
C364   C365    1.406   .     D
C365   C366    1.385   .     S
C365   H243    1.140   .     S
C366   H244    1.140   .     S
C367   C368    1.405   .     S
C367   C372    1.407   .     D
C368   C369    1.384   .     D
C368   H245    1.140   .     S
C369   C370    1.397   .     S
C369   H246    1.140   .     S
C370   C371    1.398   .     D
C371   C372    1.383   .     S
C371   H247    1.140   .     S
C372   H248    1.140   .     S
C373   C374    1.383   .     S
C373   C378    1.408   .     D
C373   H249    1.140   .     S
C374   C375    1.397   .     D
C374   H250    1.140   .     S
C375   C376    1.397   .     S
C376   C377    1.384   .     D
C376   H251    1.140   .     S
C377   C378    1.405   .     S
C377   H252    1.140   .     S
C379   C380    1.397   .     S
C379   C384    1.398   .     D
C379   H354    1.140   .     S
C380   C381    1.384   .     D
C380   H253    1.140   .     S
C381   C382    1.405   .     S
C381   H254    1.140   .     S
C382   C383    1.408   .     D
C382   Si19    1.898   .     S
C383   C384    1.383   .     S
C383   H255    1.140   .     S
C384   H256    1.140   .     S
C385   C386    1.405   .     S
C385   C390    1.384   .     D
C385   H257    1.140   .     S
C386   C387    1.408   .     D
C386   Si19    1.898   .     S
C387   C388    1.384   .     S
C387   H258    1.140   .     S
C388   C389    1.398   .     D
C388   H259    1.140   .     S
C389   C390    1.397   .     S
C389   H340    1.140   .     S
C390   H260    1.140   .     S
Si19   C391    1.899   .     S
Si19   C402    1.902   .     S
C391   C392    1.407   .     D
C391   C396    1.406   .     S
C392   C393    1.383   .     S
C392   H261    1.140   .     S
C393   C394    1.398   .     D
C393   H262    1.140   .     S
C394   C395    1.397   .     S
C394   C501    1.472   .     S
C395   C396    1.384   .     D
C395   H263    1.140   .     S
C396   H264    1.140   .     S
C397   C398    1.385   .     S
C397   C402    1.404   .     D
C397   H265    1.140   .     S
C398   C399    1.405   .     D
C398   H266    1.140   .     S
C399   C400    1.407   .     S
C399   Si20    1.898   .     S
C400   C401    1.384   .     D
C400   H267    1.140   .     S
C401   C402    1.407   .     S
C401   H268    1.140   .     S
Si20   C406    1.900   .     S
Si20   C409    1.899   .     S
Si20   C420    1.900   .     S
C403   C43     1.473   1_556 S
C403   C404    1.398   1_556 S
C403   C408    1.397   .     D
C404   C403    1.398   1_554 S
C404   C405    1.383   .     D
C404   H269    1.140   .     S
C405   C406    1.407   1_554 S
C405   H270    1.140   .     S
C406   C405    1.407   1_556 S
C406   C407    1.405   .     D
C407   C408    1.384   .     S
C407   H271    1.140   .     S
C408   H272    1.140   .     S
C409   C410    1.406   .     S
C409   C414    1.407   .     D
C410   C411    1.384   .     D
C410   H273    1.140   .     S
C411   C412    1.398   .     S
C411   H274    1.140   .     S
C412   C413    1.398   .     D
C412   H348    1.140   1_556 S
C413   C414    1.383   .     S
C413   H275    1.140   .     S
C414   H276    1.140   .     S
C415   C416    1.384   .     D
C415   C420    1.407   1_554 S
C415   H277    1.140   .     S
C416   C417    1.398   1_554 S
C416   H278    1.140   .     S
C417   C416    1.398   1_556 S
C417   C226    1.472   1_556 S
C417   C418    1.398   .     D
C418   C419    1.384   .     S
C418   H279    1.140   .     S
C419   C420    1.406   .     D
C419   H280    1.140   .     S
C420   C415    1.407   1_556 S
C421   C422    1.397   .     S
C421   C426    1.398   .     D
C422   C423    1.384   .     D
C422   H281    1.140   .     S
C423   C424    1.405   .     S
C423   H282    1.140   .     S
C424   C425    1.408   .     D
C424   Si21    1.898   .     S
C425   C426    1.383   .     S
C425   H283    1.140   .     S
C426   H284    1.140   .     S
C427   C428    1.405   .     S
C427   C432    1.384   .     D
C427   H285    1.140   .     S
C428   C429    1.408   .     D
C428   Si21    1.898   .     S
C429   C430    1.384   .     S
C429   H286    1.140   .     S
C430   C431    1.398   .     D
C430   H287    1.140   .     S
C431   C432    1.397   .     S
C431   C496    1.473   .     S
C432   H288    1.140   .     S
Si21   C433    1.899   .     S
Si21   C444    1.902   .     S
C433   C434    1.407   .     D
C433   C438    1.406   .     S
C434   C435    1.383   .     S
C434   H289    1.140   .     S
C435   C436    1.398   .     D
C435   H290    1.140   .     S
C436   C437    1.397   .     S
C436   H341    1.140   1_655 S
C437   C438    1.384   .     D
C437   H291    1.140   .     S
C438   H292    1.140   .     S
C439   C440    1.385   .     S
C439   C444    1.404   .     D
C439   H293    1.140   .     S
C440   C441    1.405   .     D
C440   H294    1.140   .     S
C441   C442    1.407   .     S
C441   Si22    1.898   .     S
C442   C443    1.384   .     D
C442   H295    1.140   .     S
C443   C444    1.407   .     S
C443   H296    1.140   .     S
Si22   C448    1.900   .     S
Si22   C451    1.899   .     S
Si22   C462    1.900   .     S
C445   C127    1.473   1_556 S
C445   C446    1.398   1_556 S
C445   C450    1.397   .     D
C446   C445    1.398   1_554 S
C446   C447    1.383   .     D
C446   H297    1.140   .     S
C447   C448    1.407   1_554 S
C447   H298    1.140   .     S
C448   C447    1.407   1_556 S
C448   C449    1.405   .     D
C449   C450    1.384   .     S
C449   H299    1.140   .     S
C450   H300    1.140   .     S
C451   C452    1.406   .     S
C451   C456    1.407   .     D
C452   C453    1.384   .     D
C452   H301    1.140   .     S
C453   C454    1.397   .     S
C453   H302    1.140   .     S
C454   C221    1.473   1_556 S
C454   C455    1.398   .     D
C455   C456    1.383   .     S
C455   H303    1.140   .     S
C456   H304    1.140   .     S
C457   C458    1.384   .     D
C457   C462    1.407   1_554 S
C457   H305    1.140   .     S
C458   C459    1.398   1_554 S
C458   H306    1.140   .     S
C459   C458    1.398   1_556 S
C459   C460    1.398   .     D
C459   H349    1.140   1_656 S
C460   C461    1.384   .     S
C460   H307    1.140   .     S
C461   C462    1.406   .     D
C461   H308    1.140   .     S
C462   C457    1.407   1_556 S
C463   C109    1.473   1_565 S
C463   C464    1.397   .     S
C463   C468    1.398   .     D
C464   C465    1.385   .     D
C464   H309    1.140   .     S
C465   C466    1.405   .     S
C465   H310    1.140   .     S
C466   C467    1.408   .     D
C466   Si23    1.898   .     S
C467   C468    1.383   .     S
C467   H311    1.140   .     S
C468   H312    1.140   .     S
C469   C470    1.405   .     D
C469   C474    1.385   .     S
C469   H313    1.140   .     S
C470   C471    1.408   .     S
C470   Si23    1.899   .     S
C471   C472    1.383   .     D
C471   H314    1.140   .     S
C472   C473    1.398   .     S
C472   H315    1.140   .     S
C473   C474    1.397   .     D
C474   H316    1.140   .     S
Si23   C475    1.898   .     S
Si23   C486    1.899   .     S
C475   C476    1.405   .     D
C475   C480    1.408   .     S
C476   C477    1.385   .     S
C476   H317    1.140   .     S
C477   C478    1.398   .     D
C477   H318    1.140   .     S
C478   C479    1.399   .     S
C478   H342    1.140   .     S
C479   C480    1.383   .     D
C479   H319    1.140   .     S
C480   H320    1.140   .     S
C481   C482    1.385   .     S
C481   C486    1.404   .     D
C481   H321    1.140   .     S
C482   C483    1.404   .     D
C482   H322    1.140   .     S
C483   C484    1.408   .     S
C483   Si24    1.898   .     S
C484   C485    1.383   .     D
C484   H323    1.140   .     S
C485   C486    1.408   .     S
C485   H324    1.140   .     S
Si24   C490    1.902   .     S
Si24   C493    1.899   .     S
Si24   C504    1.900   .     S
C487   C295    1.473   1_565 S
C487   C488    1.397   .     S
C487   C492    1.397   .     D
C488   C489    1.383   .     D
C488   H325    1.140   .     S
C489   C490    1.407   .     S
C489   H326    1.140   .     S
C490   C491    1.406   .     D
C491   C492    1.385   .     S
C491   H327    1.140   .     S
C492   H328    1.140   1_565 S
C493   C494    1.405   .     S
C493   C498    1.407   .     D
C494   C495    1.384   .     D
C494   H329    1.140   .     S
C495   C496    1.397   .     S
C495   H330    1.140   .     S
C496   C497    1.398   .     D
C497   C498    1.384   .     S
C497   H331    1.140   .     S
C498   H332    1.140   .     S
C499   C500    1.383   .     S
C499   C504    1.408   .     D
C499   H333    1.140   .     S
C500   C501    1.397   .     D
C500   H334    1.140   .     S
C501   C502    1.397   .     S
C502   C503    1.384   .     D
C502   H335    1.140   .     S
C503   C504    1.405   .     S
C503   H336    1.140   .     S
H328   C492    1.140   1_545 S
H337   C25     1.140   1_565 S
H338   C207    1.140   1_455 S
H339   C253    1.140   1_565 S
H341   C436    1.140   1_455 S
H345   C1      1.140   1_565 S
H346   C184    1.140   1_455 S
H347   C277    1.140   1_564 S
H348   C412    1.140   1_554 S
H349   C459    1.140   1_454 S
H351   C123    1.140   1_455 S
H353   C310    1.140   1_455 S
