data_Si_acs_dftb_defect_8_cluster_opt_mod
_audit_creation_date              2023-10-31
_audit_creation_method            'Materials Studio'
_symmetry_space_group_name_H-M    'P1'
_symmetry_Int_Tables_number       1
_symmetry_cell_setting            triclinic
loop_
_symmetry_equiv_pos_as_xyz
  x,y,z
_cell_length_a                    71.3256
_cell_length_b                    70.2073
_cell_length_c                    41.2424
_cell_angle_alpha                 90.3518
_cell_angle_beta                  89.8944
_cell_angle_gamma                 120.0470
loop_
_atom_site_label
_atom_site_type_symbol
_atom_site_fract_x
_atom_site_fract_y
_atom_site_fract_z
_atom_site_U_iso_or_equiv
_atom_site_adp_type
_atom_site_occupancy
C1     C     0.13427   0.01384   0.25694   0.00000  Uiso   1.00
C2     C     0.15495   0.02917   0.24489   0.00000  Uiso   1.00
C3     C     0.16576   0.05072   0.25665   0.00000  Uiso   1.00
C4     C     0.15623   0.05745   0.28043   0.00000  Uiso   1.00
C5     C     0.13580   0.04230   0.29269   0.00000  Uiso   1.00
C6     C     0.12484   0.02071   0.28112   0.00000  Uiso   1.00
H1     H     0.16281   0.02407   0.22609   0.00000  Uiso   1.00
H2     H     0.18212   0.06269   0.24703   0.00000  Uiso   1.00
H3     H     0.12819   0.04762   0.31169   0.00000  Uiso   1.00
H4     H     0.10849   0.00897   0.29085   0.00000  Uiso   1.00
C7     C     0.13601   0.08894   0.26270   0.00000  Uiso   1.00
C8     C     0.15569   0.10097   0.27927   0.00000  Uiso   1.00
C9     C     0.16446   0.12364   0.28387   0.00000  Uiso   1.00
C10    C     0.15369   0.13421   0.27232   0.00000  Uiso   1.00
C11    C     0.13376   0.12215   0.25580   0.00000  Uiso   1.00
C12    C     0.12506   0.09931   0.25111   0.00000  Uiso   1.00
Si1    Si    0.17023   0.08679   0.29537   0.00000  Uiso   1.00
C13    C     0.19908   0.10149   0.28055   0.00000  Uiso   1.00
C14    C     0.21471   0.09814   0.29581   0.00000  Uiso   1.00
C15    C     0.23589   0.10830   0.28420   0.00000  Uiso   1.00
C16    C     0.24188   0.12216   0.25687   0.00000  Uiso   1.00
C17    C     0.22604   0.12552   0.24167   0.00000  Uiso   1.00
C18    C     0.20492   0.11527   0.25351   0.00000  Uiso   1.00
C19    C     0.16498   0.10073   0.35866   0.00000  Uiso   1.00
C20    C     0.16482   0.10053   0.39299   0.00000  Uiso   1.00
C21    C     0.16932   0.08609   0.40980   0.00000  Uiso   1.00
C22    C     0.17391   0.07179   0.39247   0.00000  Uiso   1.00
C23    C     0.17405   0.07198   0.35814   0.00000  Uiso   1.00
C24    C     0.16968   0.08652   0.34132   0.00000  Uiso   1.00
Si2    Si    0.16912   0.08601   0.45576   0.00000  Uiso   1.00
C25    C     0.13155   0.01370   0.49549   0.00000  Uiso   1.00
C26    C     0.14634   0.03127   0.51536   0.00000  Uiso   1.00
C27    C     0.15741   0.05264   0.50328   0.00000  Uiso   1.00
C28    C     0.15404   0.05695   0.47136   0.00000  Uiso   1.00
C29    C     0.13932   0.03962   0.45157   0.00000  Uiso   1.00
C30    C     0.12814   0.01819   0.46339   0.00000  Uiso   1.00
C31    C     0.15476   0.10082   0.47033   0.00000  Uiso   1.00
C32    C     0.16620   0.12346   0.47690   0.00000  Uiso   1.00
C33    C     0.15541   0.13418   0.48796   0.00000  Uiso   1.00
C34    C     0.13274   0.12235   0.49260   0.00000  Uiso   1.00
C35    C     0.12129   0.09956   0.48561   0.00000  Uiso   1.00
C36    C     0.13226   0.08901   0.47461   0.00000  Uiso   1.00
C37    C     0.20266   0.11000   0.50233   0.00000  Uiso   1.00
C38    C     0.22377   0.12018   0.51427   0.00000  Uiso   1.00
C39    C     0.24053   0.12039   0.49566   0.00000  Uiso   1.00
C40    C     0.23538   0.11000   0.46491   0.00000  Uiso   1.00
C41    C     0.21421   0.09991   0.45322   0.00000  Uiso   1.00
C42    C     0.19772   0.09986   0.47174   0.00000  Uiso   1.00
H5     H     0.12902   0.07092   0.25866   0.00000  Uiso   1.00
H6     H     0.18018   0.13332   0.29696   0.00000  Uiso   1.00
H7     H     0.16083   0.15221   0.27649   0.00000  Uiso   1.00
H8     H     0.10948   0.08947   0.23785   0.00000  Uiso   1.00
H9     H     0.21016   0.08718   0.31735   0.00000  Uiso   1.00
H10    H     0.24802   0.10526   0.29649   0.00000  Uiso   1.00
H11    H     0.23039   0.13653   0.22029   0.00000  Uiso   1.00
H12    H     0.19256   0.11807   0.24132   0.00000  Uiso   1.00
H13    H     0.16128   0.11228   0.34549   0.00000  Uiso   1.00
H14    H     0.16103   0.11195   0.40665   0.00000  Uiso   1.00
H15    H     0.17744   0.06013   0.40571   0.00000  Uiso   1.00
H16    H     0.17764   0.06043   0.34445   0.00000  Uiso   1.00
H17    H     0.14914   0.02818   0.54085   0.00000  Uiso   1.00
H18    H     0.16903   0.06642   0.51919   0.00000  Uiso   1.00
H19    H     0.13656   0.04297   0.42614   0.00000  Uiso   1.00
H20    H     0.11665   0.00457   0.44721   0.00000  Uiso   1.00
H21    H     0.18411   0.13297   0.47339   0.00000  Uiso   1.00
H22    H     0.16484   0.15213   0.49343   0.00000  Uiso   1.00
H23    H     0.10339   0.08989   0.48865   0.00000  Uiso   1.00
H24    H     0.12306   0.07101   0.46917   0.00000  Uiso   1.00
H25    H     0.18958   0.10999   0.51723   0.00000  Uiso   1.00
H26    H     0.22737   0.12835   0.53849   0.00000  Uiso   1.00
H27    H     0.24819   0.10969   0.44986   0.00000  Uiso   1.00
H28    H     0.21039   0.09178   0.42891   0.00000  Uiso   1.00
C43    C     0.11998   0.24130   0.00780   0.00000  Uiso   1.00
C44    C     0.09897   0.22607   0.99667   0.00000  Uiso   1.00
C45    C     0.08823   0.20462   0.00847   0.00000  Uiso   1.00
C46    C     0.09820   0.19784   0.03123   0.00000  Uiso   1.00
C47    C     0.11893   0.21296   0.04269   0.00000  Uiso   1.00
C48    C     0.12980   0.23447   0.03117   0.00000  Uiso   1.00
H29    H     0.09077   0.23117   0.97860   0.00000  Uiso   1.00
H30    H     0.07157   0.19279   0.99964   0.00000  Uiso   1.00
H31    H     0.12686   0.20767   0.06103   0.00000  Uiso   1.00
H32    H     0.14639   0.24618   0.04026   0.00000  Uiso   1.00
C49    C     0.11873   0.16642   0.01114   0.00000  Uiso   1.00
C50    C     0.09931   0.15451   0.02830   0.00000  Uiso   1.00
C51    C     0.09079   0.13193   0.03320   0.00000  Uiso   1.00
C52    C     0.10162   0.12138   0.02159   0.00000  Uiso   1.00
C53    C     0.12133   0.13333   0.00453   0.00000  Uiso   1.00
C54    C     0.12971   0.15606   0.99939   0.00000  Uiso   1.00
Si3    Si    0.08469   0.16843   0.04537   0.00000  Uiso   1.00
C55    C     0.05579   0.15281   0.03075   0.00000  Uiso   1.00
C56    C     0.03846   0.14473   0.05260   0.00000  Uiso   1.00
C57    C     0.01716   0.13410   0.04136   0.00000  Uiso   1.00
C58    C     0.01275   0.13125   0.00773   0.00000  Uiso   1.00
C59    C     0.03034   0.13919   0.98587   0.00000  Uiso   1.00
C60    C     0.05156   0.14975   0.99741   0.00000  Uiso   1.00
C61    C     0.09290   0.15639   0.10804   0.00000  Uiso   1.00
C62    C     0.09293   0.15629   0.14236   0.00000  Uiso   1.00
C63    C     0.08570   0.16848   0.15975   0.00000  Uiso   1.00
C64    C     0.07852   0.18086   0.14301   0.00000  Uiso   1.00
C65    C     0.07844   0.18092   0.10868   0.00000  Uiso   1.00
C66    C     0.08554   0.16859   0.09129   0.00000  Uiso   1.00
Si4    Si    0.08557   0.16835   0.20569   0.00000  Uiso   1.00
C67    C     0.12262   0.24120   0.24480   0.00000  Uiso   1.00
C68    C     0.10820   0.22382   0.26500   0.00000  Uiso   1.00
C69    C     0.09718   0.20229   0.25321   0.00000  Uiso   1.00
C70    C     0.10021   0.19758   0.22123   0.00000  Uiso   1.00
C71    C     0.11452   0.21474   0.20110   0.00000  Uiso   1.00
C72    C     0.12567   0.23635   0.21262   0.00000  Uiso   1.00
C73    C     0.10020   0.15403   0.22076   0.00000  Uiso   1.00
C74    C     0.08864   0.13195   0.23022   0.00000  Uiso   1.00
C75    C     0.09952   0.12147   0.24165   0.00000  Uiso   1.00
C76    C     0.12235   0.13300   0.24381   0.00000  Uiso   1.00
C77    C     0.13390   0.15525   0.23414   0.00000  Uiso   1.00
C78    C     0.12285   0.16555   0.22272   0.00000  Uiso   1.00
C79    C     0.05261   0.14819   0.25383   0.00000  Uiso   1.00
C80    C     0.03149   0.13794   0.26568   0.00000  Uiso   1.00
C81    C     0.01397   0.13281   0.24463   0.00000  Uiso   1.00
C82    C     0.01830   0.13817   0.21147   0.00000  Uiso   1.00
C83    C     0.03950   0.14841   0.19993   0.00000  Uiso   1.00
C84    C     0.05681   0.15364   0.22099   0.00000  Uiso   1.00
H33    H     0.12547   0.18435   0.00679   0.00000  Uiso   1.00
H34    H     0.07525   0.12234   0.04667   0.00000  Uiso   1.00
H35    H     0.09470   0.10349   0.02613   0.00000  Uiso   1.00
H36    H     0.14506   0.16581   0.98569   0.00000  Uiso   1.00
H37    H     0.04171   0.14682   0.07920   0.00000  Uiso   1.00
H38    H     0.00362   0.12773   0.05913   0.00000  Uiso   1.00
H39    H     0.02737   0.13725   0.95926   0.00000  Uiso   1.00
H40    H     0.06532   0.15598   0.97993   0.00000  Uiso   1.00
H41    H     0.09879   0.14666   0.09437   0.00000  Uiso   1.00
H42    H     0.09880   0.14645   0.15556   0.00000  Uiso   1.00
H43    H     0.07283   0.19074   0.15676   0.00000  Uiso   1.00
H44    H     0.07268   0.19083   0.09543   0.00000  Uiso   1.00
H45    H     0.10567   0.22720   0.29057   0.00000  Uiso   1.00
H46    H     0.08589   0.18871   0.26943   0.00000  Uiso   1.00
H47    H     0.11700   0.21111   0.17558   0.00000  Uiso   1.00
H48    H     0.13683   0.24979   0.19615   0.00000  Uiso   1.00
H49    H     0.07060   0.12270   0.22871   0.00000  Uiso   1.00
H50    H     0.09006   0.10397   0.24936   0.00000  Uiso   1.00
H51    H     0.15191   0.16464   0.23535   0.00000  Uiso   1.00
H52    H     0.13211   0.18312   0.21508   0.00000  Uiso   1.00
H53    H     0.06632   0.15214   0.27070   0.00000  Uiso   1.00
H54    H     0.02855   0.13398   0.29194   0.00000  Uiso   1.00
H55    H     0.00476   0.13408   0.19429   0.00000  Uiso   1.00
H56    H     0.04266   0.15245   0.17366   0.00000  Uiso   1.00
C85    C     0.38429   0.01389   0.25697   0.00000  Uiso   1.00
C86    C     0.40497   0.02920   0.24491   0.00000  Uiso   1.00
C87    C     0.41580   0.05076   0.25666   0.00000  Uiso   1.00
C88    C     0.40627   0.05750   0.28044   0.00000  Uiso   1.00
C89    C     0.38584   0.04236   0.29271   0.00000  Uiso   1.00
C90    C     0.37487   0.02077   0.28115   0.00000  Uiso   1.00
H57    H     0.41282   0.02409   0.22611   0.00000  Uiso   1.00
H58    H     0.43215   0.06272   0.24704   0.00000  Uiso   1.00
H59    H     0.37824   0.04768   0.31172   0.00000  Uiso   1.00
H60    H     0.35852   0.00903   0.29088   0.00000  Uiso   1.00
C91    C     0.38604   0.08899   0.26269   0.00000  Uiso   1.00
C92    C     0.40572   0.10102   0.27925   0.00000  Uiso   1.00
C93    C     0.41449   0.12369   0.28385   0.00000  Uiso   1.00
C94    C     0.40372   0.13425   0.27231   0.00000  Uiso   1.00
C95    C     0.38377   0.12219   0.25580   0.00000  Uiso   1.00
C96    C     0.37508   0.09935   0.25111   0.00000  Uiso   1.00
Si5    Si    0.42028   0.08684   0.29536   0.00000  Uiso   1.00
C97    C     0.44912   0.10153   0.28053   0.00000  Uiso   1.00
C98    C     0.46476   0.09818   0.29579   0.00000  Uiso   1.00
C99    C     0.48594   0.10834   0.28419   0.00000  Uiso   1.00
C100   C     0.49193   0.12220   0.25685   0.00000  Uiso   1.00
C101   C     0.47609   0.12555   0.24164   0.00000  Uiso   1.00
C102   C     0.45496   0.11530   0.25348   0.00000  Uiso   1.00
C103   C     0.41502   0.10077   0.35866   0.00000  Uiso   1.00
C104   C     0.41485   0.10057   0.39299   0.00000  Uiso   1.00
C105   C     0.41937   0.08613   0.40980   0.00000  Uiso   1.00
C106   C     0.42396   0.07183   0.39245   0.00000  Uiso   1.00
C107   C     0.42410   0.07202   0.35812   0.00000  Uiso   1.00
C108   C     0.41972   0.08656   0.34131   0.00000  Uiso   1.00
Si6    Si    0.41917   0.08605   0.45575   0.00000  Uiso   1.00
C109   C     0.38155   0.01374   0.49547   0.00000  Uiso   1.00
C110   C     0.39636   0.03131   0.51534   0.00000  Uiso   1.00
C111   C     0.40744   0.05267   0.50327   0.00000  Uiso   1.00
C112   C     0.40409   0.05699   0.47135   0.00000  Uiso   1.00
C113   C     0.38936   0.03966   0.45155   0.00000  Uiso   1.00
C114   C     0.37816   0.01823   0.46336   0.00000  Uiso   1.00
C115   C     0.40480   0.10085   0.47033   0.00000  Uiso   1.00
C116   C     0.41624   0.12349   0.47691   0.00000  Uiso   1.00
C117   C     0.40543   0.13420   0.48797   0.00000  Uiso   1.00
C118   C     0.38276   0.12235   0.49260   0.00000  Uiso   1.00
C119   C     0.37132   0.09956   0.48559   0.00000  Uiso   1.00
C120   C     0.38231   0.08903   0.47460   0.00000  Uiso   1.00
C121   C     0.45271   0.11002   0.50234   0.00000  Uiso   1.00
C122   C     0.47382   0.12021   0.51428   0.00000  Uiso   1.00
C123   C     0.49059   0.12043   0.49567   0.00000  Uiso   1.00
C124   C     0.48544   0.11004   0.46492   0.00000  Uiso   1.00
C125   C     0.46427   0.09994   0.45324   0.00000  Uiso   1.00
C126   C     0.44777   0.09989   0.47175   0.00000  Uiso   1.00
H61    H     0.37906   0.07096   0.25865   0.00000  Uiso   1.00
H62    H     0.43021   0.13337   0.29694   0.00000  Uiso   1.00
H63    H     0.41085   0.15225   0.27648   0.00000  Uiso   1.00
H64    H     0.35950   0.08951   0.23786   0.00000  Uiso   1.00
H65    H     0.46021   0.08721   0.31732   0.00000  Uiso   1.00
H66    H     0.49807   0.10530   0.29647   0.00000  Uiso   1.00
H67    H     0.48044   0.13657   0.22026   0.00000  Uiso   1.00
H68    H     0.44260   0.11810   0.24129   0.00000  Uiso   1.00
H69    H     0.41131   0.11231   0.34549   0.00000  Uiso   1.00
H70    H     0.41106   0.11198   0.40666   0.00000  Uiso   1.00
H71    H     0.42749   0.06017   0.40569   0.00000  Uiso   1.00
H72    H     0.42768   0.06048   0.34442   0.00000  Uiso   1.00
H73    H     0.39914   0.02821   0.54084   0.00000  Uiso   1.00
H74    H     0.41907   0.06645   0.51918   0.00000  Uiso   1.00
H75    H     0.38661   0.04302   0.42611   0.00000  Uiso   1.00
H76    H     0.36667   0.00462   0.44719   0.00000  Uiso   1.00
H77    H     0.43415   0.13301   0.47341   0.00000  Uiso   1.00
H78    H     0.41485   0.15214   0.49344   0.00000  Uiso   1.00
H79    H     0.35342   0.08988   0.48862   0.00000  Uiso   1.00
H80    H     0.37312   0.07103   0.46915   0.00000  Uiso   1.00
H81    H     0.43963   0.11001   0.51724   0.00000  Uiso   1.00
H82    H     0.47742   0.12838   0.53850   0.00000  Uiso   1.00
H83    H     0.49825   0.10973   0.44987   0.00000  Uiso   1.00
H84    H     0.46045   0.09181   0.42892   0.00000  Uiso   1.00
C127   C     0.37013   0.24120   0.00791   0.00000  Uiso   1.00
C128   C     0.34909   0.22604   0.99675   0.00000  Uiso   1.00
C129   C     0.33826   0.20460   0.00857   0.00000  Uiso   1.00
C130   C     0.34817   0.19776   0.03136   0.00000  Uiso   1.00
C131   C     0.36890   0.21282   0.04289   0.00000  Uiso   1.00
C132   C     0.37987   0.23432   0.03134   0.00000  Uiso   1.00
H85    H     0.34096   0.23119   0.97865   0.00000  Uiso   1.00
H86    H     0.32160   0.19281   0.99973   0.00000  Uiso   1.00
H87    H     0.37677   0.20748   0.06127   0.00000  Uiso   1.00
H88    H     0.39646   0.24598   0.04045   0.00000  Uiso   1.00
C133   C     0.36869   0.16638   0.01117   0.00000  Uiso   1.00
C134   C     0.34927   0.15444   0.02832   0.00000  Uiso   1.00
C135   C     0.34077   0.13187   0.03321   0.00000  Uiso   1.00
C136   C     0.35162   0.12134   0.02159   0.00000  Uiso   1.00
C137   C     0.37134   0.13332   0.00454   0.00000  Uiso   1.00
C138   C     0.37969   0.15604   0.99941   0.00000  Uiso   1.00
Si7    Si    0.33464   0.16834   0.04542   0.00000  Uiso   1.00
C139   C     0.30574   0.15275   0.03077   0.00000  Uiso   1.00
C140   C     0.28840   0.14467   0.05261   0.00000  Uiso   1.00
C141   C     0.26711   0.13405   0.04136   0.00000  Uiso   1.00
C142   C     0.26271   0.13122   0.00773   0.00000  Uiso   1.00
C143   C     0.28031   0.13917   0.98588   0.00000  Uiso   1.00
C144   C     0.30152   0.14971   0.99742   0.00000  Uiso   1.00
C145   C     0.34285   0.15632   0.10810   0.00000  Uiso   1.00
C146   C     0.34291   0.15625   0.14242   0.00000  Uiso   1.00
C147   C     0.33567   0.16846   0.15977   0.00000  Uiso   1.00
C148   C     0.32848   0.18082   0.14302   0.00000  Uiso   1.00
C149   C     0.32838   0.18085   0.10869   0.00000  Uiso   1.00
C150   C     0.33548   0.16850   0.09134   0.00000  Uiso   1.00
Si8    Si    0.33556   0.16838   0.20571   0.00000  Uiso   1.00
C151   C     0.37285   0.24124   0.24475   0.00000  Uiso   1.00
C152   C     0.35836   0.22390   0.26495   0.00000  Uiso   1.00
C153   C     0.34722   0.20237   0.25313   0.00000  Uiso   1.00
C154   C     0.35021   0.19763   0.22115   0.00000  Uiso   1.00
C155   C     0.36457   0.21477   0.20101   0.00000  Uiso   1.00
C156   C     0.37583   0.23636   0.21255   0.00000  Uiso   1.00
C157   C     0.35020   0.15407   0.22081   0.00000  Uiso   1.00
C158   C     0.33865   0.13198   0.23025   0.00000  Uiso   1.00
C159   C     0.34953   0.12150   0.24167   0.00000  Uiso   1.00
C160   C     0.37237   0.13304   0.24383   0.00000  Uiso   1.00
C161   C     0.38391   0.15529   0.23417   0.00000  Uiso   1.00
C162   C     0.37285   0.16560   0.22277   0.00000  Uiso   1.00
C163   C     0.30262   0.14823   0.25385   0.00000  Uiso   1.00
C164   C     0.28149   0.13796   0.26570   0.00000  Uiso   1.00
C165   C     0.26397   0.13281   0.24464   0.00000  Uiso   1.00
C166   C     0.26829   0.13817   0.21149   0.00000  Uiso   1.00
C167   C     0.28949   0.14842   0.19995   0.00000  Uiso   1.00
C168   C     0.30681   0.15367   0.22101   0.00000  Uiso   1.00
H89    H     0.37541   0.18431   0.00683   0.00000  Uiso   1.00
H90    H     0.32524   0.12227   0.04668   0.00000  Uiso   1.00
H91    H     0.34472   0.10345   0.02612   0.00000  Uiso   1.00
H92    H     0.39504   0.16580   0.98572   0.00000  Uiso   1.00
H93    H     0.29165   0.14675   0.07922   0.00000  Uiso   1.00
H94    H     0.25357   0.12768   0.05912   0.00000  Uiso   1.00
H95    H     0.27734   0.13724   0.95926   0.00000  Uiso   1.00
H96    H     0.31529   0.15594   0.97996   0.00000  Uiso   1.00
H97    H     0.34874   0.14659   0.09444   0.00000  Uiso   1.00
H98    H     0.34879   0.14644   0.15563   0.00000  Uiso   1.00
H99    H     0.32280   0.19071   0.15676   0.00000  Uiso   1.00
H100   H     0.32261   0.19075   0.09542   0.00000  Uiso   1.00
H101   H     0.35587   0.22729   0.29052   0.00000  Uiso   1.00
H102   H     0.33587   0.18882   0.26935   0.00000  Uiso   1.00
H103   H     0.36699   0.21112   0.17548   0.00000  Uiso   1.00
H104   H     0.38704   0.24978   0.19608   0.00000  Uiso   1.00
H105   H     0.32061   0.12273   0.22874   0.00000  Uiso   1.00
H106   H     0.34007   0.10400   0.24936   0.00000  Uiso   1.00
H107   H     0.40192   0.16468   0.23537   0.00000  Uiso   1.00
H108   H     0.38211   0.18317   0.21515   0.00000  Uiso   1.00
H109   H     0.31632   0.15219   0.27072   0.00000  Uiso   1.00
H110   H     0.27855   0.13400   0.29197   0.00000  Uiso   1.00
H111   H     0.25475   0.13406   0.19430   0.00000  Uiso   1.00
H112   H     0.29265   0.15245   0.17368   0.00000  Uiso   1.00
C169   C     0.13401   0.26370   0.25698   0.00000  Uiso   1.00
C170   C     0.15468   0.27907   0.24493   0.00000  Uiso   1.00
C171   C     0.16544   0.30062   0.25665   0.00000  Uiso   1.00
C172   C     0.15585   0.30733   0.28045   0.00000  Uiso   1.00
C173   C     0.13539   0.29210   0.29269   0.00000  Uiso   1.00
C174   C     0.12451   0.27052   0.28113   0.00000  Uiso   1.00
H113   H     0.16258   0.27400   0.22616   0.00000  Uiso   1.00
H114   H     0.18178   0.31262   0.24703   0.00000  Uiso   1.00
H115   H     0.12773   0.29738   0.31166   0.00000  Uiso   1.00
H116   H     0.10818   0.25873   0.29083   0.00000  Uiso   1.00
C175   C     0.13562   0.33874   0.26271   0.00000  Uiso   1.00
C176   C     0.15532   0.35074   0.27936   0.00000  Uiso   1.00
C177   C     0.16413   0.37345   0.28398   0.00000  Uiso   1.00
C178   C     0.15341   0.38404   0.27241   0.00000  Uiso   1.00
C179   C     0.13348   0.37201   0.25584   0.00000  Uiso   1.00
C180   C     0.12473   0.34916   0.25112   0.00000  Uiso   1.00
Si9    Si    0.16974   0.33654   0.29544   0.00000  Uiso   1.00
C181   C     0.19958   0.35178   0.28017   0.00000  Uiso   1.00
C182   C     0.21469   0.34779   0.29557   0.00000  Uiso   1.00
C183   C     0.23705   0.35842   0.28391   0.00000  Uiso   1.00
C184   C     0.24117   0.37220   0.25753   0.00000  Uiso   1.00
C185   C     0.22709   0.37706   0.24107   0.00000  Uiso   1.00
C186   C     0.20495   0.36587   0.25369   0.00000  Uiso   1.00
C187   C     0.16449   0.35049   0.35864   0.00000  Uiso   1.00
C188   C     0.16441   0.35033   0.39295   0.00000  Uiso   1.00
C189   C     0.16899   0.33594   0.40976   0.00000  Uiso   1.00
C190   C     0.17355   0.32161   0.39241   0.00000  Uiso   1.00
C191   C     0.17361   0.32173   0.35811   0.00000  Uiso   1.00
C192   C     0.16919   0.33626   0.34125   0.00000  Uiso   1.00
Si10   Si    0.16893   0.33598   0.45569   0.00000  Uiso   1.00
C193   C     0.13144   0.26368   0.49551   0.00000  Uiso   1.00
C194   C     0.14625   0.28126   0.51535   0.00000  Uiso   1.00
C195   C     0.15728   0.30263   0.50327   0.00000  Uiso   1.00
C196   C     0.15389   0.30693   0.47136   0.00000  Uiso   1.00
C197   C     0.13915   0.28958   0.45161   0.00000  Uiso   1.00
C198   C     0.12799   0.26815   0.46343   0.00000  Uiso   1.00
C199   C     0.15455   0.35077   0.47023   0.00000  Uiso   1.00
C200   C     0.16599   0.37341   0.47673   0.00000  Uiso   1.00
C201   C     0.15520   0.38413   0.48783   0.00000  Uiso   1.00
C202   C     0.13254   0.37230   0.49255   0.00000  Uiso   1.00
C203   C     0.12109   0.34949   0.48560   0.00000  Uiso   1.00
C204   C     0.13206   0.33895   0.47459   0.00000  Uiso   1.00
C205   C     0.20237   0.36013   0.50225   0.00000  Uiso   1.00
C206   C     0.22378   0.37028   0.51495   0.00000  Uiso   1.00
C207   C     0.24053   0.37001   0.49648   0.00000  Uiso   1.00
C208   C     0.23557   0.35961   0.46546   0.00000  Uiso   1.00
C209   C     0.21404   0.34970   0.45333   0.00000  Uiso   1.00
C210   C     0.19765   0.34997   0.47169   0.00000  Uiso   1.00
H117   H     0.12861   0.32072   0.25864   0.00000  Uiso   1.00
H118   H     0.17985   0.38310   0.29711   0.00000  Uiso   1.00
H119   H     0.16058   0.40205   0.27658   0.00000  Uiso   1.00
H120   H     0.10917   0.33936   0.23782   0.00000  Uiso   1.00
H121   H     0.20973   0.33649   0.31663   0.00000  Uiso   1.00
H122   H     0.24974   0.35572   0.29528   0.00000  Uiso   1.00
H123   H     0.23225   0.38854   0.22000   0.00000  Uiso   1.00
H124   H     0.19240   0.36856   0.24211   0.00000  Uiso   1.00
H125   H     0.16073   0.36199   0.34548   0.00000  Uiso   1.00
H126   H     0.16063   0.36176   0.40662   0.00000  Uiso   1.00
H127   H     0.17711   0.30998   0.40566   0.00000  Uiso   1.00
H128   H     0.17717   0.31016   0.34443   0.00000  Uiso   1.00
H129   H     0.14908   0.27818   0.54083   0.00000  Uiso   1.00
H130   H     0.16891   0.31641   0.51916   0.00000  Uiso   1.00
H131   H     0.13635   0.29292   0.42619   0.00000  Uiso   1.00
H132   H     0.11650   0.25454   0.44727   0.00000  Uiso   1.00
H133   H     0.18389   0.38293   0.47315   0.00000  Uiso   1.00
H134   H     0.16463   0.40208   0.49326   0.00000  Uiso   1.00
H135   H     0.10320   0.33982   0.48871   0.00000  Uiso   1.00
H136   H     0.12285   0.32094   0.46920   0.00000  Uiso   1.00
H137   H     0.18923   0.36026   0.51674   0.00000  Uiso   1.00
H138   H     0.22742   0.37838   0.53925   0.00000  Uiso   1.00
H139   H     0.24851   0.35926   0.45073   0.00000  Uiso   1.00
H140   H     0.21017   0.34161   0.42901   0.00000  Uiso   1.00
C211   C     0.11998   0.49137   0.00778   0.00000  Uiso   1.00
C212   C     0.09895   0.47615   0.99665   0.00000  Uiso   1.00
C213   C     0.08820   0.45471   0.00846   0.00000  Uiso   1.00
C214   C     0.09816   0.44792   0.03123   0.00000  Uiso   1.00
C215   C     0.11889   0.46302   0.04270   0.00000  Uiso   1.00
C216   C     0.12978   0.48454   0.03116   0.00000  Uiso   1.00
H141   H     0.09077   0.48126   0.97857   0.00000  Uiso   1.00
H142   H     0.07154   0.44288   0.99963   0.00000  Uiso   1.00
H143   H     0.12681   0.45773   0.06104   0.00000  Uiso   1.00
H144   H     0.14637   0.49623   0.04025   0.00000  Uiso   1.00
C217   C     0.11861   0.41641   0.01117   0.00000  Uiso   1.00
C218   C     0.09921   0.40453   0.02837   0.00000  Uiso   1.00
C219   C     0.09065   0.38196   0.03329   0.00000  Uiso   1.00
C220   C     0.10141   0.37136   0.02162   0.00000  Uiso   1.00
C221   C     0.12110   0.38326   0.00450   0.00000  Uiso   1.00
C222   C     0.12952   0.40599   0.99936   0.00000  Uiso   1.00
Si11   Si    0.08463   0.41852   0.04540   0.00000  Uiso   1.00
C223   C     0.05573   0.40289   0.03076   0.00000  Uiso   1.00
C224   C     0.03839   0.39478   0.05261   0.00000  Uiso   1.00
C225   C     0.01710   0.38411   0.04136   0.00000  Uiso   1.00
C226   C     0.01270   0.38126   0.00773   0.00000  Uiso   1.00
C227   C     0.03029   0.38922   0.98588   0.00000  Uiso   1.00
C228   C     0.05151   0.39981   0.99742   0.00000  Uiso   1.00
C229   C     0.09283   0.40649   0.10806   0.00000  Uiso   1.00
C230   C     0.09287   0.40639   0.14238   0.00000  Uiso   1.00
C231   C     0.08563   0.41858   0.15976   0.00000  Uiso   1.00
C232   C     0.07844   0.43096   0.14303   0.00000  Uiso   1.00
C233   C     0.07837   0.43102   0.10870   0.00000  Uiso   1.00
C234   C     0.08547   0.41869   0.09132   0.00000  Uiso   1.00
Si12   Si    0.08551   0.41843   0.20570   0.00000  Uiso   1.00
C235   C     0.12263   0.49127   0.24484   0.00000  Uiso   1.00
C236   C     0.10821   0.47390   0.26505   0.00000  Uiso   1.00
C237   C     0.09717   0.45236   0.25324   0.00000  Uiso   1.00
C238   C     0.10019   0.44766   0.22126   0.00000  Uiso   1.00
C239   C     0.11450   0.46481   0.20112   0.00000  Uiso   1.00
C240   C     0.12567   0.48642   0.21265   0.00000  Uiso   1.00
C241   C     0.10009   0.40404   0.22073   0.00000  Uiso   1.00
C242   C     0.08848   0.38196   0.23016   0.00000  Uiso   1.00
C243   C     0.09930   0.37143   0.24162   0.00000  Uiso   1.00
C244   C     0.12213   0.38292   0.24382   0.00000  Uiso   1.00
C245   C     0.13373   0.40516   0.23415   0.00000  Uiso   1.00
C246   C     0.12274   0.41551   0.22271   0.00000  Uiso   1.00
C247   C     0.05257   0.39827   0.25385   0.00000  Uiso   1.00
C248   C     0.03144   0.38797   0.26570   0.00000  Uiso   1.00
C249   C     0.01392   0.38282   0.24464   0.00000  Uiso   1.00
C250   C     0.01824   0.38818   0.21149   0.00000  Uiso   1.00
C251   C     0.03944   0.39846   0.19995   0.00000  Uiso   1.00
C252   C     0.05676   0.40372   0.22101   0.00000  Uiso   1.00
H145   H     0.12539   0.43434   0.00683   0.00000  Uiso   1.00
H146   H     0.07513   0.37241   0.04682   0.00000  Uiso   1.00
H147   H     0.09446   0.35345   0.02615   0.00000  Uiso   1.00
H148   H     0.14486   0.41570   0.98561   0.00000  Uiso   1.00
H149   H     0.04164   0.39688   0.07921   0.00000  Uiso   1.00
H150   H     0.00356   0.37772   0.05913   0.00000  Uiso   1.00
H151   H     0.02732   0.38727   0.95926   0.00000  Uiso   1.00
H152   H     0.06527   0.40606   0.97995   0.00000  Uiso   1.00
H153   H     0.09873   0.39677   0.09439   0.00000  Uiso   1.00
H154   H     0.09874   0.39656   0.15557   0.00000  Uiso   1.00
H155   H     0.07275   0.44083   0.15678   0.00000  Uiso   1.00
H156   H     0.07260   0.44093   0.09546   0.00000  Uiso   1.00
H157   H     0.10568   0.47728   0.29061   0.00000  Uiso   1.00
H158   H     0.08587   0.43879   0.26947   0.00000  Uiso   1.00
H159   H     0.11697   0.46118   0.17560   0.00000  Uiso   1.00
H160   H     0.13683   0.49986   0.19618   0.00000  Uiso   1.00
H161   H     0.07044   0.37275   0.22862   0.00000  Uiso   1.00
H162   H     0.08980   0.35393   0.24931   0.00000  Uiso   1.00
H163   H     0.15175   0.41450   0.23538   0.00000  Uiso   1.00
H164   H     0.13204   0.43308   0.21507   0.00000  Uiso   1.00
H165   H     0.06628   0.40224   0.27072   0.00000  Uiso   1.00
H166   H     0.02850   0.38401   0.29196   0.00000  Uiso   1.00
H167   H     0.00470   0.38407   0.19430   0.00000  Uiso   1.00
H168   H     0.04260   0.40251   0.17368   0.00000  Uiso   1.00
C253   C     0.38437   0.26372   0.25698   0.00000  Uiso   1.00
C254   C     0.40509   0.27900   0.24499   0.00000  Uiso   1.00
C255   C     0.41596   0.30053   0.25678   0.00000  Uiso   1.00
C256   C     0.40643   0.30732   0.28059   0.00000  Uiso   1.00
C257   C     0.38592   0.29218   0.29277   0.00000  Uiso   1.00
C258   C     0.37493   0.27062   0.28114   0.00000  Uiso   1.00
H169   H     0.41293   0.27387   0.22620   0.00000  Uiso   1.00
H170   H     0.43234   0.31246   0.24722   0.00000  Uiso   1.00
H171   H     0.37832   0.29751   0.31174   0.00000  Uiso   1.00
H172   H     0.35856   0.25890   0.29080   0.00000  Uiso   1.00
C259   C     0.38628   0.33901   0.26160   0.00000  Uiso   1.00
C260   C     0.40553   0.35126   0.27895   0.00000  Uiso   1.00
C261   C     0.41453   0.37379   0.28482   0.00000  Uiso   1.00
C262   C     0.40361   0.38534   0.27298   0.00000  Uiso   1.00
C263   C     0.38453   0.37205   0.25605   0.00000  Uiso   1.00
C264   C     0.37468   0.34968   0.24906   0.00000  Uiso   1.00
Si13   Si    0.42048   0.33652   0.29564   0.00000  Uiso   1.00
C265   C     0.44921   0.35122   0.28080   0.00000  Uiso   1.00
C266   C     0.46492   0.34789   0.29596   0.00000  Uiso   1.00
C267   C     0.48608   0.35812   0.28430   0.00000  Uiso   1.00
C268   C     0.49201   0.37204   0.25702   0.00000  Uiso   1.00
C269   C     0.47612   0.37537   0.24191   0.00000  Uiso   1.00
C270   C     0.45501   0.36507   0.25377   0.00000  Uiso   1.00
C271   C     0.41516   0.35051   0.35877   0.00000  Uiso   1.00
C272   C     0.41496   0.35034   0.39308   0.00000  Uiso   1.00
C273   C     0.41946   0.33591   0.40998   0.00000  Uiso   1.00
C274   C     0.42409   0.32161   0.39270   0.00000  Uiso   1.00
C275   C     0.42428   0.32177   0.35839   0.00000  Uiso   1.00
C276   C     0.41990   0.33629   0.34145   0.00000  Uiso   1.00
Si14   Si    0.41919   0.33586   0.45590   0.00000  Uiso   1.00
C277   C     0.38156   0.26356   0.49559   0.00000  Uiso   1.00
C278   C     0.39634   0.28112   0.51548   0.00000  Uiso   1.00
C279   C     0.40741   0.30249   0.50343   0.00000  Uiso   1.00
C280   C     0.40408   0.30681   0.47150   0.00000  Uiso   1.00
C281   C     0.38938   0.28948   0.45167   0.00000  Uiso   1.00
C282   C     0.37819   0.26804   0.46347   0.00000  Uiso   1.00
C283   C     0.40490   0.35086   0.47051   0.00000  Uiso   1.00
C284   C     0.41666   0.37345   0.47725   0.00000  Uiso   1.00
C285   C     0.40592   0.38474   0.48815   0.00000  Uiso   1.00
C286   C     0.38300   0.37299   0.49199   0.00000  Uiso   1.00
C287   C     0.37117   0.35005   0.48487   0.00000  Uiso   1.00
C288   C     0.38237   0.33917   0.47419   0.00000  Uiso   1.00
C289   C     0.45272   0.35973   0.50251   0.00000  Uiso   1.00
C290   C     0.47385   0.36998   0.51440   0.00000  Uiso   1.00
C291   C     0.49063   0.37027   0.49573   0.00000  Uiso   1.00
C292   C     0.48547   0.35988   0.46498   0.00000  Uiso   1.00
C293   C     0.46429   0.34972   0.45334   0.00000  Uiso   1.00
C294   C     0.44778   0.34963   0.47190   0.00000  Uiso   1.00
H173   H     0.37976   0.32114   0.25722   0.00000  Uiso   1.00
H174   H     0.43000   0.38295   0.29850   0.00000  Uiso   1.00
H175   H     0.41006   0.40331   0.27717   0.00000  Uiso   1.00
H176   H     0.35922   0.34062   0.23504   0.00000  Uiso   1.00
H177   H     0.46042   0.33689   0.31745   0.00000  Uiso   1.00
H178   H     0.49825   0.35510   0.29650   0.00000  Uiso   1.00
H179   H     0.48044   0.38642   0.22058   0.00000  Uiso   1.00
H180   H     0.44263   0.36786   0.24167   0.00000  Uiso   1.00
H181   H     0.41145   0.36204   0.34556   0.00000  Uiso   1.00
H182   H     0.41116   0.36176   0.40668   0.00000  Uiso   1.00
H183   H     0.42761   0.30997   0.40601   0.00000  Uiso   1.00
H184   H     0.42790   0.31022   0.34478   0.00000  Uiso   1.00
H185   H     0.39911   0.27802   0.54099   0.00000  Uiso   1.00
H186   H     0.41902   0.31627   0.51935   0.00000  Uiso   1.00
H187   H     0.38664   0.29283   0.42623   0.00000  Uiso   1.00
H188   H     0.36672   0.25443   0.44728   0.00000  Uiso   1.00
H189   H     0.43459   0.38265   0.47408   0.00000  Uiso   1.00
H190   H     0.41538   0.40270   0.49363   0.00000  Uiso   1.00
H191   H     0.35322   0.34065   0.48769   0.00000  Uiso   1.00
H192   H     0.37315   0.32119   0.46868   0.00000  Uiso   1.00
H193   H     0.43964   0.35967   0.51746   0.00000  Uiso   1.00
H194   H     0.47745   0.37814   0.53862   0.00000  Uiso   1.00
H195   H     0.49830   0.35962   0.44989   0.00000  Uiso   1.00
H196   H     0.46047   0.34160   0.42902   0.00000  Uiso   1.00
C295   C     0.13427   0.01385   0.75694   0.00000  Uiso   1.00
C296   C     0.15495   0.02917   0.74488   0.00000  Uiso   1.00
C297   C     0.16576   0.05072   0.75664   0.00000  Uiso   1.00
C298   C     0.15623   0.05745   0.78042   0.00000  Uiso   1.00
C299   C     0.13580   0.04230   0.79268   0.00000  Uiso   1.00
C300   C     0.12484   0.02071   0.78111   0.00000  Uiso   1.00
H197   H     0.16281   0.02407   0.72609   0.00000  Uiso   1.00
H198   H     0.18212   0.06269   0.74702   0.00000  Uiso   1.00
H199   H     0.12819   0.04762   0.81168   0.00000  Uiso   1.00
H200   H     0.10850   0.00897   0.79084   0.00000  Uiso   1.00
C301   C     0.13601   0.08895   0.76269   0.00000  Uiso   1.00
C302   C     0.15569   0.10098   0.77925   0.00000  Uiso   1.00
C303   C     0.16446   0.12365   0.78386   0.00000  Uiso   1.00
C304   C     0.15370   0.13422   0.77232   0.00000  Uiso   1.00
C305   C     0.13376   0.12216   0.75580   0.00000  Uiso   1.00
C306   C     0.12506   0.09932   0.75110   0.00000  Uiso   1.00
Si15   Si    0.17023   0.08680   0.79536   0.00000  Uiso   1.00
C307   C     0.19908   0.10149   0.78054   0.00000  Uiso   1.00
C308   C     0.21471   0.09814   0.79580   0.00000  Uiso   1.00
C309   C     0.23589   0.10830   0.78420   0.00000  Uiso   1.00
C310   C     0.24189   0.12217   0.75687   0.00000  Uiso   1.00
C311   C     0.22605   0.12552   0.74166   0.00000  Uiso   1.00
C312   C     0.20492   0.11527   0.75349   0.00000  Uiso   1.00
C313   C     0.16498   0.10073   0.85865   0.00000  Uiso   1.00
C314   C     0.16481   0.10053   0.89298   0.00000  Uiso   1.00
C315   C     0.16932   0.08609   0.90979   0.00000  Uiso   1.00
C316   C     0.17391   0.07179   0.89245   0.00000  Uiso   1.00
C317   C     0.17405   0.07198   0.85812   0.00000  Uiso   1.00
C318   C     0.16968   0.08652   0.84131   0.00000  Uiso   1.00
Si16   Si    0.16911   0.08601   0.95574   0.00000  Uiso   1.00
C319   C     0.13154   0.01370   0.99548   0.00000  Uiso   1.00
C320   C     0.14634   0.03128   0.01535   0.00000  Uiso   1.00
C321   C     0.15741   0.05264   0.00327   0.00000  Uiso   1.00
C322   C     0.15404   0.05695   0.97135   0.00000  Uiso   1.00
C323   C     0.13932   0.03961   0.95156   0.00000  Uiso   1.00
C324   C     0.12813   0.01818   0.96338   0.00000  Uiso   1.00
C325   C     0.15475   0.10082   0.97032   0.00000  Uiso   1.00
C326   C     0.16620   0.12346   0.97689   0.00000  Uiso   1.00
C327   C     0.15541   0.13418   0.98796   0.00000  Uiso   1.00
C328   C     0.13274   0.12235   0.99260   0.00000  Uiso   1.00
C329   C     0.12129   0.09955   0.98560   0.00000  Uiso   1.00
C330   C     0.13226   0.08901   0.97460   0.00000  Uiso   1.00
C331   C     0.20265   0.10999   0.00232   0.00000  Uiso   1.00
C332   C     0.22376   0.12017   0.01426   0.00000  Uiso   1.00
C333   C     0.24052   0.12038   0.99565   0.00000  Uiso   1.00
C334   C     0.23537   0.10999   0.96490   0.00000  Uiso   1.00
C335   C     0.21421   0.09990   0.95321   0.00000  Uiso   1.00
C336   C     0.19771   0.09986   0.97173   0.00000  Uiso   1.00
H201   H     0.12902   0.07093   0.75865   0.00000  Uiso   1.00
H202   H     0.18018   0.13332   0.79695   0.00000  Uiso   1.00
H203   H     0.16084   0.15223   0.77648   0.00000  Uiso   1.00
H204   H     0.10948   0.08949   0.73785   0.00000  Uiso   1.00
H205   H     0.21016   0.08718   0.81733   0.00000  Uiso   1.00
H206   H     0.24802   0.10526   0.79649   0.00000  Uiso   1.00
H207   H     0.23040   0.13654   0.72028   0.00000  Uiso   1.00
H208   H     0.19256   0.11807   0.74131   0.00000  Uiso   1.00
H209   H     0.16128   0.11228   0.84548   0.00000  Uiso   1.00
H210   H     0.16103   0.11194   0.90665   0.00000  Uiso   1.00
H211   H     0.17744   0.06013   0.90569   0.00000  Uiso   1.00
H212   H     0.17764   0.06043   0.84443   0.00000  Uiso   1.00
H213   H     0.14914   0.02818   0.04084   0.00000  Uiso   1.00
H214   H     0.16903   0.06642   0.01917   0.00000  Uiso   1.00
H215   H     0.13655   0.04296   0.92613   0.00000  Uiso   1.00
H216   H     0.11665   0.00457   0.94721   0.00000  Uiso   1.00
H217   H     0.18411   0.13296   0.97338   0.00000  Uiso   1.00
H218   H     0.16484   0.15212   0.99343   0.00000  Uiso   1.00
H219   H     0.10339   0.08988   0.98864   0.00000  Uiso   1.00
H220   H     0.12306   0.07101   0.96916   0.00000  Uiso   1.00
H221   H     0.18958   0.10999   0.01722   0.00000  Uiso   1.00
H222   H     0.22736   0.12834   0.03848   0.00000  Uiso   1.00
H223   H     0.24819   0.10968   0.94986   0.00000  Uiso   1.00
H224   H     0.21039   0.09177   0.92890   0.00000  Uiso   1.00
C337   C     0.12005   0.24134   0.50787   0.00000  Uiso   1.00
C338   C     0.09903   0.22612   0.49671   0.00000  Uiso   1.00
C339   C     0.08827   0.20466   0.50848   0.00000  Uiso   1.00
C340   C     0.09823   0.19786   0.53124   0.00000  Uiso   1.00
C341   C     0.11895   0.21296   0.54274   0.00000  Uiso   1.00
C342   C     0.12984   0.23448   0.53124   0.00000  Uiso   1.00
H225   H     0.09085   0.23123   0.47864   0.00000  Uiso   1.00
H226   H     0.07162   0.19284   0.49963   0.00000  Uiso   1.00
H227   H     0.12686   0.20765   0.56107   0.00000  Uiso   1.00
H228   H     0.14642   0.24616   0.54035   0.00000  Uiso   1.00
C343   C     0.11873   0.16643   0.51114   0.00000  Uiso   1.00
C344   C     0.09931   0.15451   0.52830   0.00000  Uiso   1.00
C345   C     0.09079   0.13194   0.53320   0.00000  Uiso   1.00
C346   C     0.10162   0.12139   0.52160   0.00000  Uiso   1.00
C347   C     0.12133   0.13334   0.50454   0.00000  Uiso   1.00
C348   C     0.12970   0.15606   0.49940   0.00000  Uiso   1.00
Si17   Si    0.08470   0.16845   0.54537   0.00000  Uiso   1.00
C349   C     0.05579   0.15283   0.53075   0.00000  Uiso   1.00
C350   C     0.03846   0.14475   0.55259   0.00000  Uiso   1.00
C351   C     0.01717   0.13411   0.54136   0.00000  Uiso   1.00
C352   C     0.01275   0.13126   0.50773   0.00000  Uiso   1.00
C353   C     0.03034   0.13920   0.48587   0.00000  Uiso   1.00
C354   C     0.05156   0.14977   0.49740   0.00000  Uiso   1.00
C355   C     0.09290   0.15640   0.60804   0.00000  Uiso   1.00
C356   C     0.09293   0.15630   0.64236   0.00000  Uiso   1.00
C357   C     0.08569   0.16849   0.65975   0.00000  Uiso   1.00
C358   C     0.07851   0.18087   0.64301   0.00000  Uiso   1.00
C359   C     0.07844   0.18094   0.60867   0.00000  Uiso   1.00
C360   C     0.08554   0.16861   0.59130   0.00000  Uiso   1.00
Si18   Si    0.08557   0.16837   0.70569   0.00000  Uiso   1.00
C361   C     0.12268   0.24124   0.74475   0.00000  Uiso   1.00
C362   C     0.10825   0.22387   0.76496   0.00000  Uiso   1.00
C363   C     0.09721   0.20233   0.75318   0.00000  Uiso   1.00
C364   C     0.10022   0.19760   0.72120   0.00000  Uiso   1.00
C365   C     0.11454   0.21475   0.70105   0.00000  Uiso   1.00
C366   C     0.12571   0.23636   0.71256   0.00000  Uiso   1.00
C367   C     0.10020   0.15405   0.72077   0.00000  Uiso   1.00
C368   C     0.08865   0.13197   0.73022   0.00000  Uiso   1.00
C369   C     0.09952   0.12148   0.74165   0.00000  Uiso   1.00
C370   C     0.12236   0.13302   0.74381   0.00000  Uiso   1.00
C371   C     0.13390   0.15527   0.73415   0.00000  Uiso   1.00
C372   C     0.12285   0.16557   0.72273   0.00000  Uiso   1.00
C373   C     0.05262   0.14822   0.75384   0.00000  Uiso   1.00
C374   C     0.03150   0.13795   0.76569   0.00000  Uiso   1.00
C375   C     0.01397   0.13282   0.74463   0.00000  Uiso   1.00
C376   C     0.01830   0.13818   0.71147   0.00000  Uiso   1.00
C377   C     0.03950   0.14842   0.69993   0.00000  Uiso   1.00
C378   C     0.05681   0.15366   0.72099   0.00000  Uiso   1.00
H229   H     0.12547   0.18436   0.50680   0.00000  Uiso   1.00
H230   H     0.07525   0.12235   0.54667   0.00000  Uiso   1.00
H231   H     0.09470   0.10350   0.52613   0.00000  Uiso   1.00
H232   H     0.14506   0.16581   0.48570   0.00000  Uiso   1.00
H233   H     0.04171   0.14684   0.57920   0.00000  Uiso   1.00
H234   H     0.00363   0.12773   0.55913   0.00000  Uiso   1.00
H235   H     0.02737   0.13726   0.45926   0.00000  Uiso   1.00
H236   H     0.06532   0.15600   0.47993   0.00000  Uiso   1.00
H237   H     0.09879   0.14668   0.59438   0.00000  Uiso   1.00
H238   H     0.09880   0.14646   0.65556   0.00000  Uiso   1.00
H239   H     0.07282   0.19075   0.65676   0.00000  Uiso   1.00
H240   H     0.07268   0.19085   0.59543   0.00000  Uiso   1.00
H241   H     0.10572   0.22726   0.79052   0.00000  Uiso   1.00
H242   H     0.08590   0.18876   0.76941   0.00000  Uiso   1.00
H243   H     0.11700   0.21111   0.67554   0.00000  Uiso   1.00
H244   H     0.13688   0.24979   0.69607   0.00000  Uiso   1.00
H245   H     0.07060   0.12272   0.72871   0.00000  Uiso   1.00
H246   H     0.09006   0.10398   0.74935   0.00000  Uiso   1.00
H247   H     0.15191   0.16465   0.73535   0.00000  Uiso   1.00
H248   H     0.13211   0.18314   0.71510   0.00000  Uiso   1.00
H249   H     0.06632   0.15217   0.77070   0.00000  Uiso   1.00
H250   H     0.02855   0.13400   0.79195   0.00000  Uiso   1.00
H251   H     0.00476   0.13408   0.69429   0.00000  Uiso   1.00
H252   H     0.04266   0.15246   0.67367   0.00000  Uiso   1.00
C379   C     0.38430   0.01390   0.75697   0.00000  Uiso   1.00
C380   C     0.40498   0.02921   0.74491   0.00000  Uiso   1.00
C381   C     0.41580   0.05076   0.75666   0.00000  Uiso   1.00
C382   C     0.40627   0.05750   0.78044   0.00000  Uiso   1.00
C383   C     0.38584   0.04236   0.79271   0.00000  Uiso   1.00
C384   C     0.37487   0.02077   0.78114   0.00000  Uiso   1.00
H253   H     0.41283   0.02410   0.72611   0.00000  Uiso   1.00
H254   H     0.43215   0.06272   0.74704   0.00000  Uiso   1.00
H255   H     0.37824   0.04768   0.81171   0.00000  Uiso   1.00
H256   H     0.35853   0.00903   0.79087   0.00000  Uiso   1.00
C385   C     0.38604   0.08899   0.76269   0.00000  Uiso   1.00
C386   C     0.40572   0.10102   0.77925   0.00000  Uiso   1.00
C387   C     0.41449   0.12369   0.78386   0.00000  Uiso   1.00
C388   C     0.40372   0.13425   0.77231   0.00000  Uiso   1.00
C389   C     0.38377   0.12219   0.75580   0.00000  Uiso   1.00
C390   C     0.37508   0.09935   0.75111   0.00000  Uiso   1.00
Si19   Si    0.42028   0.08685   0.79536   0.00000  Uiso   1.00
C391   C     0.44912   0.10153   0.78053   0.00000  Uiso   1.00
C392   C     0.46475   0.09818   0.79579   0.00000  Uiso   1.00
C393   C     0.48594   0.10834   0.78418   0.00000  Uiso   1.00
C394   C     0.49193   0.12220   0.75685   0.00000  Uiso   1.00
C395   C     0.47609   0.12555   0.74164   0.00000  Uiso   1.00
C396   C     0.45496   0.11530   0.75348   0.00000  Uiso   1.00
C397   C     0.41502   0.10077   0.85866   0.00000  Uiso   1.00
C398   C     0.41486   0.10057   0.89299   0.00000  Uiso   1.00
C399   C     0.41937   0.08613   0.90980   0.00000  Uiso   1.00
C400   C     0.42396   0.07183   0.89245   0.00000  Uiso   1.00
C401   C     0.42410   0.07202   0.85812   0.00000  Uiso   1.00
C402   C     0.41972   0.08656   0.84131   0.00000  Uiso   1.00
Si20   Si    0.41917   0.08605   0.95575   0.00000  Uiso   1.00
C403   C     0.38155   0.01374   0.99547   0.00000  Uiso   1.00
C404   C     0.39636   0.03131   0.01534   0.00000  Uiso   1.00
C405   C     0.40744   0.05267   0.00327   0.00000  Uiso   1.00
C406   C     0.40409   0.05699   0.97135   0.00000  Uiso   1.00
C407   C     0.38936   0.03966   0.95155   0.00000  Uiso   1.00
C408   C     0.37816   0.01823   0.96336   0.00000  Uiso   1.00
C409   C     0.40480   0.10085   0.97033   0.00000  Uiso   1.00
C410   C     0.41624   0.12349   0.97691   0.00000  Uiso   1.00
C411   C     0.40543   0.13420   0.98797   0.00000  Uiso   1.00
C412   C     0.38276   0.12235   0.99260   0.00000  Uiso   1.00
C413   C     0.37132   0.09956   0.98559   0.00000  Uiso   1.00
C414   C     0.38231   0.08903   0.97460   0.00000  Uiso   1.00
C415   C     0.45271   0.11002   0.00234   0.00000  Uiso   1.00
C416   C     0.47382   0.12021   0.01428   0.00000  Uiso   1.00
C417   C     0.49059   0.12043   0.99567   0.00000  Uiso   1.00
C418   C     0.48544   0.11004   0.96492   0.00000  Uiso   1.00
C419   C     0.46427   0.09994   0.95324   0.00000  Uiso   1.00
C420   C     0.44777   0.09989   0.97174   0.00000  Uiso   1.00
H257   H     0.37906   0.07096   0.75865   0.00000  Uiso   1.00
H258   H     0.43021   0.13337   0.79694   0.00000  Uiso   1.00
H259   H     0.41085   0.15226   0.77648   0.00000  Uiso   1.00
H260   H     0.35950   0.08951   0.73786   0.00000  Uiso   1.00
H261   H     0.46020   0.08722   0.81732   0.00000  Uiso   1.00
H262   H     0.49807   0.10530   0.79647   0.00000  Uiso   1.00
H263   H     0.48044   0.13657   0.72026   0.00000  Uiso   1.00
H264   H     0.44260   0.11810   0.74129   0.00000  Uiso   1.00
H265   H     0.41131   0.11232   0.84550   0.00000  Uiso   1.00
H266   H     0.41107   0.11198   0.90666   0.00000  Uiso   1.00
H267   H     0.42749   0.06017   0.90568   0.00000  Uiso   1.00
H268   H     0.42768   0.06048   0.84442   0.00000  Uiso   1.00
H269   H     0.39914   0.02821   0.04084   0.00000  Uiso   1.00
H270   H     0.41907   0.06645   0.01918   0.00000  Uiso   1.00
H271   H     0.38661   0.04301   0.92611   0.00000  Uiso   1.00
H272   H     0.36667   0.00462   0.94719   0.00000  Uiso   1.00
H273   H     0.43415   0.13300   0.97341   0.00000  Uiso   1.00
H274   H     0.41485   0.15214   0.99344   0.00000  Uiso   1.00
H275   H     0.35342   0.08988   0.98862   0.00000  Uiso   1.00
H276   H     0.37312   0.07103   0.96915   0.00000  Uiso   1.00
H277   H     0.43963   0.11001   0.01724   0.00000  Uiso   1.00
H278   H     0.47742   0.12837   0.03850   0.00000  Uiso   1.00
H279   H     0.49825   0.10973   0.94987   0.00000  Uiso   1.00
H280   H     0.46045   0.09181   0.92892   0.00000  Uiso   1.00
C421   C     0.37011   0.24123   0.50795   0.00000  Uiso   1.00
C422   C     0.34908   0.22606   0.49679   0.00000  Uiso   1.00
C423   C     0.33827   0.20461   0.50857   0.00000  Uiso   1.00
C424   C     0.34819   0.19777   0.53135   0.00000  Uiso   1.00
C425   C     0.36892   0.21283   0.54288   0.00000  Uiso   1.00
C426   C     0.37987   0.23434   0.53136   0.00000  Uiso   1.00
H281   H     0.34094   0.23121   0.47870   0.00000  Uiso   1.00
H282   H     0.32161   0.19282   0.49972   0.00000  Uiso   1.00
H283   H     0.37679   0.20749   0.56124   0.00000  Uiso   1.00
H284   H     0.39645   0.24600   0.54049   0.00000  Uiso   1.00
C427   C     0.36869   0.16638   0.51117   0.00000  Uiso   1.00
C428   C     0.34928   0.15444   0.52832   0.00000  Uiso   1.00
C429   C     0.34078   0.13187   0.53322   0.00000  Uiso   1.00
C430   C     0.35162   0.12135   0.52160   0.00000  Uiso   1.00
C431   C     0.37134   0.13332   0.50454   0.00000  Uiso   1.00
C432   C     0.37969   0.15604   0.49941   0.00000  Uiso   1.00
Si21   Si    0.33464   0.16835   0.54542   0.00000  Uiso   1.00
C433   C     0.30575   0.15277   0.53077   0.00000  Uiso   1.00
C434   C     0.28841   0.14468   0.55261   0.00000  Uiso   1.00
C435   C     0.26712   0.13407   0.54136   0.00000  Uiso   1.00
C436   C     0.26272   0.13123   0.50773   0.00000  Uiso   1.00
C437   C     0.28031   0.13918   0.48588   0.00000  Uiso   1.00
C438   C     0.30153   0.14972   0.49742   0.00000  Uiso   1.00
C439   C     0.34286   0.15634   0.60810   0.00000  Uiso   1.00
C440   C     0.34292   0.15627   0.64242   0.00000  Uiso   1.00
C441   C     0.33569   0.16848   0.65977   0.00000  Uiso   1.00
C442   C     0.32850   0.18084   0.64302   0.00000  Uiso   1.00
C443   C     0.32840   0.18087   0.60869   0.00000  Uiso   1.00
C444   C     0.33549   0.16852   0.59133   0.00000  Uiso   1.00
Si22   Si    0.33557   0.16839   0.70571   0.00000  Uiso   1.00
C445   C     0.37283   0.24126   0.74473   0.00000  Uiso   1.00
C446   C     0.35836   0.22391   0.76493   0.00000  Uiso   1.00
C447   C     0.34724   0.20238   0.75314   0.00000  Uiso   1.00
C448   C     0.35023   0.19764   0.72116   0.00000  Uiso   1.00
C449   C     0.36457   0.21477   0.70100   0.00000  Uiso   1.00
C450   C     0.37582   0.23637   0.71252   0.00000  Uiso   1.00
C451   C     0.35021   0.15408   0.72081   0.00000  Uiso   1.00
C452   C     0.33866   0.13199   0.73025   0.00000  Uiso   1.00
C453   C     0.34953   0.12151   0.74166   0.00000  Uiso   1.00
C454   C     0.37237   0.13304   0.74382   0.00000  Uiso   1.00
C455   C     0.38391   0.15529   0.73417   0.00000  Uiso   1.00
C456   C     0.37286   0.16560   0.72277   0.00000  Uiso   1.00
C457   C     0.30263   0.14824   0.75386   0.00000  Uiso   1.00
C458   C     0.28150   0.13797   0.76570   0.00000  Uiso   1.00
C459   C     0.26398   0.13282   0.74464   0.00000  Uiso   1.00
C460   C     0.26830   0.13818   0.71149   0.00000  Uiso   1.00
C461   C     0.28950   0.14843   0.69995   0.00000  Uiso   1.00
C462   C     0.30682   0.15368   0.72101   0.00000  Uiso   1.00
H285   H     0.37542   0.18431   0.50683   0.00000  Uiso   1.00
H286   H     0.32524   0.12227   0.54668   0.00000  Uiso   1.00
H287   H     0.34472   0.10345   0.52612   0.00000  Uiso   1.00
H288   H     0.39504   0.16581   0.48572   0.00000  Uiso   1.00
H289   H     0.29166   0.14677   0.57922   0.00000  Uiso   1.00
H290   H     0.25358   0.12769   0.55913   0.00000  Uiso   1.00
H291   H     0.27735   0.13725   0.45926   0.00000  Uiso   1.00
H292   H     0.31529   0.15595   0.47996   0.00000  Uiso   1.00
H293   H     0.34875   0.14661   0.59444   0.00000  Uiso   1.00
H294   H     0.34880   0.14645   0.65563   0.00000  Uiso   1.00
H295   H     0.32281   0.19074   0.65676   0.00000  Uiso   1.00
H296   H     0.32263   0.19077   0.59542   0.00000  Uiso   1.00
H297   H     0.35586   0.22731   0.79050   0.00000  Uiso   1.00
H298   H     0.33590   0.18883   0.76937   0.00000  Uiso   1.00
H299   H     0.36700   0.21111   0.67548   0.00000  Uiso   1.00
H300   H     0.38701   0.24978   0.69604   0.00000  Uiso   1.00
H301   H     0.32061   0.12274   0.72874   0.00000  Uiso   1.00
H302   H     0.34007   0.10400   0.74935   0.00000  Uiso   1.00
H303   H     0.40192   0.16468   0.73537   0.00000  Uiso   1.00
H304   H     0.38211   0.18317   0.71514   0.00000  Uiso   1.00
H305   H     0.31633   0.15220   0.77073   0.00000  Uiso   1.00
H306   H     0.27856   0.13401   0.79197   0.00000  Uiso   1.00
H307   H     0.25476   0.13407   0.69430   0.00000  Uiso   1.00
H308   H     0.29267   0.15247   0.67368   0.00000  Uiso   1.00
C463   C     0.13411   0.26374   0.75690   0.00000  Uiso   1.00
C464   C     0.15477   0.27907   0.74481   0.00000  Uiso   1.00
C465   C     0.16556   0.30064   0.75651   0.00000  Uiso   1.00
C466   C     0.15602   0.30737   0.78028   0.00000  Uiso   1.00
C467   C     0.13560   0.29221   0.79255   0.00000  Uiso   1.00
C468   C     0.12466   0.27061   0.78105   0.00000  Uiso   1.00
H309   H     0.16264   0.27396   0.72604   0.00000  Uiso   1.00
H310   H     0.18190   0.31262   0.74685   0.00000  Uiso   1.00
H311   H     0.12798   0.29753   0.81153   0.00000  Uiso   1.00
H312   H     0.10833   0.25886   0.79079   0.00000  Uiso   1.00
C469   C     0.13581   0.33887   0.76261   0.00000  Uiso   1.00
C470   C     0.15549   0.35088   0.77919   0.00000  Uiso   1.00
C471   C     0.16425   0.37355   0.78385   0.00000  Uiso   1.00
C472   C     0.15350   0.38413   0.77232   0.00000  Uiso   1.00
C473   C     0.13357   0.37209   0.75577   0.00000  Uiso   1.00
C474   C     0.12486   0.34925   0.75104   0.00000  Uiso   1.00
Si23   Si    0.17003   0.33670   0.79526   0.00000  Uiso   1.00
C475   C     0.19901   0.35149   0.78047   0.00000  Uiso   1.00
C476   C     0.21444   0.34774   0.79547   0.00000  Uiso   1.00
C477   C     0.23610   0.35814   0.78387   0.00000  Uiso   1.00
C478   C     0.24216   0.37258   0.75688   0.00000  Uiso   1.00
C479   C     0.22637   0.37637   0.74186   0.00000  Uiso   1.00
C480   C     0.20482   0.36567   0.75392   0.00000  Uiso   1.00
C481   C     0.16456   0.35051   0.85849   0.00000  Uiso   1.00
C482   C     0.16433   0.35030   0.89280   0.00000  Uiso   1.00
C483   C     0.16884   0.33585   0.90969   0.00000  Uiso   1.00
C484   C     0.17347   0.32155   0.89234   0.00000  Uiso   1.00
C485   C     0.17366   0.32176   0.85803   0.00000  Uiso   1.00
C486   C     0.16932   0.33632   0.84117   0.00000  Uiso   1.00
Si24   Si    0.16863   0.33582   0.95550   0.00000  Uiso   1.00
C487   C     0.13136   0.26363   0.99540   0.00000  Uiso   1.00
C488   C     0.14618   0.28125   0.01520   0.00000  Uiso   1.00
C489   C     0.15718   0.30260   0.00310   0.00000  Uiso   1.00
C490   C     0.15374   0.30688   0.97116   0.00000  Uiso   1.00
C491   C     0.13897   0.28948   0.95142   0.00000  Uiso   1.00
C492   C     0.12786   0.26807   0.96330   0.00000  Uiso   1.00
C493   C     0.15437   0.35062   0.97007   0.00000  Uiso   1.00
C494   C     0.16587   0.37330   0.97661   0.00000  Uiso   1.00
C495   C     0.15512   0.38403   0.98775   0.00000  Uiso   1.00
C496   C     0.13245   0.37223   0.99249   0.00000  Uiso   1.00
C497   C     0.12095   0.34942   0.98552   0.00000  Uiso   1.00
C498   C     0.13185   0.33883   0.97447   0.00000  Uiso   1.00
C499   C     0.20249   0.36024   0.00257   0.00000  Uiso   1.00
C500   C     0.22444   0.37074   0.01596   0.00000  Uiso   1.00
C501   C     0.23950   0.36947   0.99595   0.00000  Uiso   1.00
C502   C     0.23648   0.35980   0.96546   0.00000  Uiso   1.00
C503   C     0.21426   0.34972   0.95324   0.00000  Uiso   1.00
C504   C     0.19821   0.35022   0.97203   0.00000  Uiso   1.00
H313   H     0.12883   0.32085   0.75853   0.00000  Uiso   1.00
H314   H     0.17997   0.38321   0.79696   0.00000  Uiso   1.00
H315   H     0.16064   0.40214   0.77651   0.00000  Uiso   1.00
H316   H     0.10929   0.33943   0.73777   0.00000  Uiso   1.00
H317   H     0.20969   0.33646   0.81662   0.00000  Uiso   1.00
H318   H     0.24829   0.35502   0.79586   0.00000  Uiso   1.00
H319   H     0.23089   0.38766   0.72076   0.00000  Uiso   1.00
H320   H     0.19242   0.36856   0.74211   0.00000  Uiso   1.00
H321   H     0.16086   0.36204   0.84529   0.00000  Uiso   1.00
H322   H     0.16051   0.36170   0.90642   0.00000  Uiso   1.00
H323   H     0.17698   0.30989   0.90559   0.00000  Uiso   1.00
H324   H     0.17726   0.31022   0.84436   0.00000  Uiso   1.00
H325   H     0.14904   0.27818   0.04068   0.00000  Uiso   1.00
H326   H     0.16882   0.31640   0.01897   0.00000  Uiso   1.00
H327   H     0.13614   0.29278   0.92600   0.00000  Uiso   1.00
H328   H     0.11636   0.25442   0.94718   0.00000  Uiso   1.00
H329   H     0.18377   0.38279   0.97302   0.00000  Uiso   1.00
H330   H     0.16457   0.40198   0.99320   0.00000  Uiso   1.00
H331   H     0.10305   0.33978   0.98865   0.00000  Uiso   1.00
H332   H     0.12261   0.32082   0.96906   0.00000  Uiso   1.00
H333   H     0.18922   0.36025   0.01677   0.00000  Uiso   1.00
H334   H     0.22874   0.37905   0.04021   0.00000  Uiso   1.00
H335   H     0.24989   0.35974   0.95145   0.00000  Uiso   1.00
H336   H     0.21018   0.34162   0.92900   0.00000  Uiso   1.00
C505   C     0.12004   0.49139   0.50785   0.00000  Uiso   1.00
C506   C     0.09902   0.47619   0.49669   0.00000  Uiso   1.00
C507   C     0.08824   0.45473   0.50847   0.00000  Uiso   1.00
C508   C     0.09818   0.44792   0.53124   0.00000  Uiso   1.00
C509   C     0.11891   0.46301   0.54274   0.00000  Uiso   1.00
C510   C     0.12982   0.48453   0.53124   0.00000  Uiso   1.00
H337   H     0.09085   0.48131   0.47861   0.00000  Uiso   1.00
H338   H     0.07159   0.44292   0.49962   0.00000  Uiso   1.00
H339   H     0.12681   0.45769   0.56109   0.00000  Uiso   1.00
H340   H     0.14640   0.49620   0.54035   0.00000  Uiso   1.00
C511   C     0.11862   0.41643   0.51115   0.00000  Uiso   1.00
C512   C     0.09922   0.40454   0.52834   0.00000  Uiso   1.00
C513   C     0.09067   0.38197   0.53327   0.00000  Uiso   1.00
C514   C     0.10146   0.37139   0.52163   0.00000  Uiso   1.00
C515   C     0.12116   0.38330   0.50452   0.00000  Uiso   1.00
C516   C     0.12955   0.40603   0.49936   0.00000  Uiso   1.00
Si25   Si    0.08463   0.41852   0.54539   0.00000  Uiso   1.00
C517   C     0.05574   0.40290   0.53076   0.00000  Uiso   1.00
C518   C     0.03840   0.39479   0.55260   0.00000  Uiso   1.00
C519   C     0.01711   0.38412   0.54136   0.00000  Uiso   1.00
C520   C     0.01270   0.38126   0.50773   0.00000  Uiso   1.00
C521   C     0.03029   0.38923   0.48588   0.00000  Uiso   1.00
C522   C     0.05151   0.39982   0.49741   0.00000  Uiso   1.00
C523   C     0.09284   0.40649   0.60806   0.00000  Uiso   1.00
C524   C     0.09287   0.40639   0.64238   0.00000  Uiso   1.00
C525   C     0.08563   0.41858   0.65976   0.00000  Uiso   1.00
C526   C     0.07845   0.43095   0.64303   0.00000  Uiso   1.00
C527   C     0.07837   0.43102   0.60869   0.00000  Uiso   1.00
C528   C     0.08548   0.41869   0.59131   0.00000  Uiso   1.00
Si26   Si    0.08551   0.41844   0.70570   0.00000  Uiso   1.00
C529   C     0.12269   0.49129   0.74478   0.00000  Uiso   1.00
C530   C     0.10825   0.47393   0.76499   0.00000  Uiso   1.00
C531   C     0.09719   0.45239   0.75320   0.00000  Uiso   1.00
C532   C     0.10019   0.44767   0.72122   0.00000  Uiso   1.00
C533   C     0.11451   0.46481   0.70107   0.00000  Uiso   1.00
C534   C     0.12570   0.48642   0.71258   0.00000  Uiso   1.00
C535   C     0.10011   0.40407   0.72074   0.00000  Uiso   1.00
C536   C     0.08852   0.38199   0.73018   0.00000  Uiso   1.00
C537   C     0.09936   0.37147   0.74160   0.00000  Uiso   1.00
C538   C     0.12219   0.38297   0.74378   0.00000  Uiso   1.00
C539   C     0.13377   0.40522   0.73411   0.00000  Uiso   1.00
C540   C     0.12276   0.41556   0.72269   0.00000  Uiso   1.00
C541   C     0.05258   0.39828   0.75385   0.00000  Uiso   1.00
C542   C     0.03145   0.38798   0.76570   0.00000  Uiso   1.00
C543   C     0.01392   0.38283   0.74464   0.00000  Uiso   1.00
C544   C     0.01824   0.38818   0.71149   0.00000  Uiso   1.00
C545   C     0.03944   0.39846   0.69994   0.00000  Uiso   1.00
C546   C     0.05676   0.40373   0.72101   0.00000  Uiso   1.00
H341   H     0.12538   0.43436   0.50679   0.00000  Uiso   1.00
H342   H     0.07515   0.37241   0.54678   0.00000  Uiso   1.00
H343   H     0.09452   0.35349   0.52617   0.00000  Uiso   1.00
H344   H     0.14489   0.41575   0.48563   0.00000  Uiso   1.00
H345   H     0.04165   0.39689   0.57921   0.00000  Uiso   1.00
H346   H     0.00357   0.37772   0.55913   0.00000  Uiso   1.00
H347   H     0.02732   0.38727   0.45926   0.00000  Uiso   1.00
H348   H     0.06527   0.40607   0.47994   0.00000  Uiso   1.00
H349   H     0.09873   0.39677   0.59438   0.00000  Uiso   1.00
H350   H     0.09874   0.39655   0.65557   0.00000  Uiso   1.00
H351   H     0.07275   0.44083   0.65678   0.00000  Uiso   1.00
H352   H     0.07261   0.44093   0.59545   0.00000  Uiso   1.00
H353   H     0.10574   0.47732   0.79055   0.00000  Uiso   1.00
H354   H     0.08588   0.43883   0.76944   0.00000  Uiso   1.00
H355   H     0.11696   0.46116   0.67555   0.00000  Uiso   1.00
H356   H     0.13687   0.49984   0.69610   0.00000  Uiso   1.00
H357   H     0.07048   0.37277   0.72866   0.00000  Uiso   1.00
H358   H     0.08987   0.35397   0.74930   0.00000  Uiso   1.00
H359   H     0.15178   0.41457   0.73531   0.00000  Uiso   1.00
H360   H     0.13204   0.43313   0.71506   0.00000  Uiso   1.00
H361   H     0.06628   0.40225   0.77072   0.00000  Uiso   1.00
H362   H     0.02851   0.38402   0.79196   0.00000  Uiso   1.00
H363   H     0.00470   0.38406   0.69430   0.00000  Uiso   1.00
H364   H     0.04260   0.40250   0.67368   0.00000  Uiso   1.00
C547   C     0.38432   0.26375   0.75693   0.00000  Uiso   1.00
C548   C     0.40502   0.27905   0.74492   0.00000  Uiso   1.00
C549   C     0.41586   0.30059   0.75670   0.00000  Uiso   1.00
C550   C     0.40632   0.30735   0.78046   0.00000  Uiso   1.00
C551   C     0.38586   0.29222   0.79266   0.00000  Uiso   1.00
C552   C     0.37489   0.27063   0.78107   0.00000  Uiso   1.00
H365   H     0.41288   0.27393   0.72615   0.00000  Uiso   1.00
H366   H     0.43223   0.31254   0.74712   0.00000  Uiso   1.00
H367   H     0.37825   0.29755   0.81162   0.00000  Uiso   1.00
H368   H     0.35852   0.25891   0.79076   0.00000  Uiso   1.00
C553   C     0.38649   0.33906   0.76186   0.00000  Uiso   1.00
C554   C     0.40581   0.35098   0.77933   0.00000  Uiso   1.00
C555   C     0.41447   0.37354   0.78492   0.00000  Uiso   1.00
C556   C     0.40368   0.38455   0.77327   0.00000  Uiso   1.00
C557   C     0.38397   0.37253   0.75562   0.00000  Uiso   1.00
C558   C     0.37537   0.34963   0.74984   0.00000  Uiso   1.00
Si27   Si    0.42034   0.33667   0.79547   0.00000  Uiso   1.00
C559   C     0.44918   0.35135   0.78062   0.00000  Uiso   1.00
C560   C     0.46483   0.34799   0.79580   0.00000  Uiso   1.00
C561   C     0.48601   0.35819   0.78419   0.00000  Uiso   1.00
C562   C     0.49198   0.37210   0.75691   0.00000  Uiso   1.00
C563   C     0.47613   0.37546   0.74177   0.00000  Uiso   1.00
C564   C     0.45501   0.36517   0.75362   0.00000  Uiso   1.00
C565   C     0.41513   0.35053   0.85884   0.00000  Uiso   1.00
C566   C     0.41499   0.35030   0.89315   0.00000  Uiso   1.00
C567   C     0.41951   0.33583   0.90992   0.00000  Uiso   1.00
C568   C     0.42411   0.32155   0.89245   0.00000  Uiso   1.00
C569   C     0.42423   0.32179   0.85814   0.00000  Uiso   1.00
C570   C     0.41983   0.33634   0.84139   0.00000  Uiso   1.00
Si28   Si    0.41932   0.33570   0.95574   0.00000  Uiso   1.00
C571   C     0.38160   0.26352   0.99551   0.00000  Uiso   1.00
C572   C     0.39639   0.28109   0.01540   0.00000  Uiso   1.00
C573   C     0.40749   0.30245   0.00333   0.00000  Uiso   1.00
C574   C     0.40418   0.30677   0.97133   0.00000  Uiso   1.00
C575   C     0.38944   0.28940   0.95151   0.00000  Uiso   1.00
C576   C     0.37823   0.26799   0.96336   0.00000  Uiso   1.00
C577   C     0.40465   0.35118   0.97082   0.00000  Uiso   1.00
C578   C     0.41675   0.37373   0.97737   0.00000  Uiso   1.00
C579   C     0.40590   0.38557   0.98854   0.00000  Uiso   1.00
C580   C     0.38353   0.37252   0.99131   0.00000  Uiso   1.00
C581   C     0.37040   0.35015   0.98508   0.00000  Uiso   1.00
C582   C     0.38216   0.33915   0.97427   0.00000  Uiso   1.00
C583   C     0.45274   0.35964   0.00234   0.00000  Uiso   1.00
C584   C     0.47385   0.36991   0.01424   0.00000  Uiso   1.00
C585   C     0.49065   0.37021   0.99561   0.00000  Uiso   1.00
C586   C     0.48553   0.35979   0.96486   0.00000  Uiso   1.00
C587   C     0.46437   0.34961   0.95317   0.00000  Uiso   1.00
C588   C     0.44781   0.34950   0.97170   0.00000  Uiso   1.00
H369   H     0.37978   0.32113   0.75728   0.00000  Uiso   1.00
H370   H     0.42997   0.38294   0.79863   0.00000  Uiso   1.00
H371   H     0.41063   0.40249   0.77793   0.00000  Uiso   1.00
H372   H     0.35999   0.34002   0.73597   0.00000  Uiso   1.00
H373   H     0.46029   0.33699   0.81729   0.00000  Uiso   1.00
H374   H     0.49815   0.35514   0.79642   0.00000  Uiso   1.00
H375   H     0.48046   0.38651   0.72044   0.00000  Uiso   1.00
H376   H     0.44264   0.36798   0.74150   0.00000  Uiso   1.00
H377   H     0.41141   0.36208   0.84574   0.00000  Uiso   1.00
H378   H     0.41122   0.36171   0.90686   0.00000  Uiso   1.00
H379   H     0.42765   0.30987   0.90561   0.00000  Uiso   1.00
H380   H     0.42782   0.31027   0.84438   0.00000  Uiso   1.00
H381   H     0.39914   0.27799   0.04092   0.00000  Uiso   1.00
H382   H     0.41910   0.31622   0.01925   0.00000  Uiso   1.00
H383   H     0.38671   0.29273   0.92605   0.00000  Uiso   1.00
H384   H     0.36675   0.25437   0.94719   0.00000  Uiso   1.00
H385   H     0.43463   0.38269   0.97411   0.00000  Uiso   1.00
H386   H     0.41482   0.40357   0.99434   0.00000  Uiso   1.00
H387   H     0.35241   0.34131   0.98812   0.00000  Uiso   1.00
H388   H     0.37318   0.32122   0.96875   0.00000  Uiso   1.00
H389   H     0.43964   0.35958   0.01726   0.00000  Uiso   1.00
H390   H     0.47744   0.37810   0.03845   0.00000  Uiso   1.00
H391   H     0.49838   0.35955   0.94982   0.00000  Uiso   1.00
H392   H     0.46058   0.34147   0.92887   0.00000  Uiso   1.00
C589   C     0.63431   0.01392   0.25697   0.00000  Uiso   1.00
C590   C     0.65499   0.02924   0.24492   0.00000  Uiso   1.00
C591   C     0.66580   0.05079   0.25667   0.00000  Uiso   1.00
C592   C     0.65627   0.05753   0.28044   0.00000  Uiso   1.00
C593   C     0.63584   0.04239   0.29271   0.00000  Uiso   1.00
C594   C     0.62488   0.02079   0.28115   0.00000  Uiso   1.00
H393   H     0.66285   0.02414   0.22613   0.00000  Uiso   1.00
H394   H     0.68216   0.06276   0.24706   0.00000  Uiso   1.00
H395   H     0.62824   0.04771   0.31171   0.00000  Uiso   1.00
H396   H     0.60854   0.00905   0.29087   0.00000  Uiso   1.00
C595   C     0.63603   0.08902   0.26269   0.00000  Uiso   1.00
C596   C     0.65572   0.10105   0.27925   0.00000  Uiso   1.00
C597   C     0.66448   0.12372   0.28385   0.00000  Uiso   1.00
C598   C     0.65371   0.13429   0.27230   0.00000  Uiso   1.00
C599   C     0.63377   0.12223   0.25579   0.00000  Uiso   1.00
C600   C     0.62508   0.09938   0.25110   0.00000  Uiso   1.00
Si29   Si    0.67027   0.08688   0.29536   0.00000  Uiso   1.00
C601   C     0.69912   0.10156   0.28054   0.00000  Uiso   1.00
C602   C     0.71475   0.09820   0.29579   0.00000  Uiso   1.00
C603   C     0.73593   0.10835   0.28419   0.00000  Uiso   1.00
C604   C     0.74193   0.12221   0.25685   0.00000  Uiso   1.00
C605   C     0.72609   0.12557   0.24164   0.00000  Uiso   1.00
C606   C     0.70496   0.11533   0.25348   0.00000  Uiso   1.00
C607   C     0.66501   0.10081   0.35866   0.00000  Uiso   1.00
C608   C     0.66485   0.10061   0.39299   0.00000  Uiso   1.00
C609   C     0.66936   0.08617   0.40980   0.00000  Uiso   1.00
C610   C     0.67395   0.07188   0.39245   0.00000  Uiso   1.00
C611   C     0.67409   0.07207   0.35812   0.00000  Uiso   1.00
C612   C     0.66971   0.08660   0.34131   0.00000  Uiso   1.00
Si30   Si    0.66917   0.08610   0.45575   0.00000  Uiso   1.00
C613   C     0.63158   0.01378   0.49547   0.00000  Uiso   1.00
C614   C     0.64638   0.03136   0.51534   0.00000  Uiso   1.00
C615   C     0.65745   0.05272   0.50327   0.00000  Uiso   1.00
C616   C     0.65409   0.05703   0.47135   0.00000  Uiso   1.00
C617   C     0.63937   0.03970   0.45155   0.00000  Uiso   1.00
C618   C     0.62818   0.01827   0.46337   0.00000  Uiso   1.00
C619   C     0.65479   0.10089   0.47035   0.00000  Uiso   1.00
C620   C     0.66623   0.12353   0.47693   0.00000  Uiso   1.00
C621   C     0.65543   0.13424   0.48799   0.00000  Uiso   1.00
C622   C     0.63276   0.12240   0.49262   0.00000  Uiso   1.00
C623   C     0.62132   0.09961   0.48562   0.00000  Uiso   1.00
C624   C     0.63230   0.08907   0.47463   0.00000  Uiso   1.00
C625   C     0.70271   0.11005   0.50234   0.00000  Uiso   1.00
C626   C     0.72382   0.12022   0.51428   0.00000  Uiso   1.00
C627   C     0.74058   0.12044   0.49567   0.00000  Uiso   1.00
C628   C     0.73543   0.11004   0.46492   0.00000  Uiso   1.00
C629   C     0.71426   0.09996   0.45324   0.00000  Uiso   1.00
C630   C     0.69776   0.09993   0.47174   0.00000  Uiso   1.00
H397   H     0.62905   0.07100   0.25866   0.00000  Uiso   1.00
H398   H     0.68021   0.13340   0.29693   0.00000  Uiso   1.00
H399   H     0.66085   0.15229   0.27647   0.00000  Uiso   1.00
H400   H     0.60949   0.08954   0.23786   0.00000  Uiso   1.00
H401   H     0.71019   0.08724   0.31733   0.00000  Uiso   1.00
H402   H     0.74805   0.10530   0.29648   0.00000  Uiso   1.00
H403   H     0.73044   0.13658   0.22026   0.00000  Uiso   1.00
H404   H     0.69261   0.11813   0.24129   0.00000  Uiso   1.00
H405   H     0.66131   0.11235   0.34549   0.00000  Uiso   1.00
H406   H     0.66106   0.11202   0.40665   0.00000  Uiso   1.00
H407   H     0.67748   0.06022   0.40569   0.00000  Uiso   1.00
H408   H     0.67768   0.06052   0.34443   0.00000  Uiso   1.00
H409   H     0.64917   0.02826   0.54084   0.00000  Uiso   1.00
H410   H     0.66907   0.06650   0.51917   0.00000  Uiso   1.00
H411   H     0.63661   0.04305   0.42612   0.00000  Uiso   1.00
H412   H     0.61669   0.00465   0.44719   0.00000  Uiso   1.00
H413   H     0.68414   0.13304   0.47342   0.00000  Uiso   1.00
H414   H     0.66485   0.15219   0.49346   0.00000  Uiso   1.00
H415   H     0.60342   0.08993   0.48867   0.00000  Uiso   1.00
H416   H     0.62310   0.07107   0.46919   0.00000  Uiso   1.00
H417   H     0.68964   0.11005   0.51725   0.00000  Uiso   1.00
H418   H     0.72742   0.12839   0.53850   0.00000  Uiso   1.00
H419   H     0.74824   0.10973   0.44987   0.00000  Uiso   1.00
H420   H     0.71043   0.09183   0.42892   0.00000  Uiso   1.00
C631   C     0.62012   0.24137   0.00786   0.00000  Uiso   1.00
C632   C     0.59910   0.22617   0.99669   0.00000  Uiso   1.00
C633   C     0.58832   0.20472   0.00847   0.00000  Uiso   1.00
C634   C     0.59826   0.19791   0.03126   0.00000  Uiso   1.00
C635   C     0.61898   0.21299   0.04278   0.00000  Uiso   1.00
C636   C     0.62990   0.23451   0.03127   0.00000  Uiso   1.00
H421   H     0.59095   0.23129   0.97859   0.00000  Uiso   1.00
H422   H     0.57167   0.19290   0.99961   0.00000  Uiso   1.00
H423   H     0.62687   0.20768   0.06114   0.00000  Uiso   1.00
H424   H     0.64648   0.24619   0.04039   0.00000  Uiso   1.00
C637   C     0.61875   0.16648   0.01116   0.00000  Uiso   1.00
C638   C     0.59933   0.15456   0.02832   0.00000  Uiso   1.00
C639   C     0.59081   0.13199   0.03322   0.00000  Uiso   1.00
C640   C     0.60163   0.12144   0.02161   0.00000  Uiso   1.00
C641   C     0.62135   0.13338   0.00455   0.00000  Uiso   1.00
C642   C     0.62972   0.15611   0.99941   0.00000  Uiso   1.00
Si31   Si    0.58472   0.16850   0.04539   0.00000  Uiso   1.00
C643   C     0.55582   0.15289   0.03076   0.00000  Uiso   1.00
C644   C     0.53849   0.14480   0.05260   0.00000  Uiso   1.00
C645   C     0.51719   0.13415   0.04136   0.00000  Uiso   1.00
C646   C     0.51278   0.13129   0.00773   0.00000  Uiso   1.00
C647   C     0.53038   0.13926   0.98588   0.00000  Uiso   1.00
C648   C     0.55159   0.14983   0.99741   0.00000  Uiso   1.00
C649   C     0.59293   0.15648   0.10807   0.00000  Uiso   1.00
C650   C     0.59297   0.15640   0.14239   0.00000  Uiso   1.00
C651   C     0.58574   0.16860   0.15976   0.00000  Uiso   1.00
C652   C     0.57856   0.18098   0.14302   0.00000  Uiso   1.00
C653   C     0.57848   0.18102   0.10868   0.00000  Uiso   1.00
C654   C     0.58557   0.16868   0.09132   0.00000  Uiso   1.00
Si32   Si    0.58562   0.16849   0.20571   0.00000  Uiso   1.00
C655   C     0.62281   0.24136   0.24475   0.00000  Uiso   1.00
C656   C     0.60835   0.22400   0.26495   0.00000  Uiso   1.00
C657   C     0.59727   0.20246   0.25316   0.00000  Uiso   1.00
C658   C     0.60028   0.19773   0.22119   0.00000  Uiso   1.00
C659   C     0.61462   0.21487   0.20104   0.00000  Uiso   1.00
C660   C     0.62582   0.23647   0.21255   0.00000  Uiso   1.00
C661   C     0.60024   0.15415   0.22078   0.00000  Uiso   1.00
C662   C     0.58868   0.13206   0.23021   0.00000  Uiso   1.00
C663   C     0.59954   0.12157   0.24163   0.00000  Uiso   1.00
C664   C     0.62238   0.13309   0.24380   0.00000  Uiso   1.00
C665   C     0.63393   0.15534   0.23415   0.00000  Uiso   1.00
C666   C     0.62289   0.16566   0.22275   0.00000  Uiso   1.00
C667   C     0.55267   0.14832   0.25385   0.00000  Uiso   1.00
C668   C     0.53155   0.13803   0.26570   0.00000  Uiso   1.00
C669   C     0.51402   0.13287   0.24463   0.00000  Uiso   1.00
C670   C     0.51834   0.13823   0.21148   0.00000  Uiso   1.00
C671   C     0.53955   0.14851   0.19995   0.00000  Uiso   1.00
C672   C     0.55687   0.15377   0.22101   0.00000  Uiso   1.00
H425   H     0.62549   0.18441   0.00682   0.00000  Uiso   1.00
H426   H     0.57527   0.12240   0.04669   0.00000  Uiso   1.00
H427   H     0.59471   0.10354   0.02614   0.00000  Uiso   1.00
H428   H     0.64508   0.16586   0.98571   0.00000  Uiso   1.00
H429   H     0.54174   0.14690   0.07921   0.00000  Uiso   1.00
H430   H     0.50365   0.12777   0.05914   0.00000  Uiso   1.00
H431   H     0.52740   0.13731   0.95926   0.00000  Uiso   1.00
H432   H     0.56536   0.15607   0.97994   0.00000  Uiso   1.00
H433   H     0.59882   0.14676   0.09441   0.00000  Uiso   1.00
H434   H     0.59884   0.14657   0.15560   0.00000  Uiso   1.00
H435   H     0.57288   0.19086   0.15676   0.00000  Uiso   1.00
H436   H     0.57272   0.19093   0.09543   0.00000  Uiso   1.00
H437   H     0.60583   0.22739   0.29051   0.00000  Uiso   1.00
H438   H     0.58594   0.18890   0.26939   0.00000  Uiso   1.00
H439   H     0.61707   0.21122   0.17552   0.00000  Uiso   1.00
H440   H     0.63701   0.24989   0.19608   0.00000  Uiso   1.00
H441   H     0.57063   0.12282   0.22869   0.00000  Uiso   1.00
H442   H     0.59007   0.10406   0.24931   0.00000  Uiso   1.00
H443   H     0.65194   0.16472   0.23536   0.00000  Uiso   1.00
H444   H     0.63216   0.18323   0.21513   0.00000  Uiso   1.00
H445   H     0.56638   0.15230   0.27073   0.00000  Uiso   1.00
H446   H     0.52860   0.13407   0.29196   0.00000  Uiso   1.00
H447   H     0.50481   0.13411   0.19429   0.00000  Uiso   1.00
H448   H     0.54271   0.15255   0.17368   0.00000  Uiso   1.00
C673   C     0.88429   0.01388   0.25695   0.00000  Uiso   1.00
C674   C     0.90497   0.02921   0.24490   0.00000  Uiso   1.00
C675   C     0.91577   0.05077   0.25665   0.00000  Uiso   1.00
C676   C     0.90623   0.05750   0.28043   0.00000  Uiso   1.00
C677   C     0.88580   0.04234   0.29268   0.00000  Uiso   1.00
C678   C     0.87485   0.02075   0.28112   0.00000  Uiso   1.00
H449   H     0.91284   0.02412   0.22612   0.00000  Uiso   1.00
H450   H     0.93213   0.06274   0.24704   0.00000  Uiso   1.00
H451   H     0.87819   0.04765   0.31167   0.00000  Uiso   1.00
H452   H     0.85851   0.00900   0.29084   0.00000  Uiso   1.00
C679   C     0.88600   0.08900   0.26269   0.00000  Uiso   1.00
C680   C     0.90568   0.10102   0.27925   0.00000  Uiso   1.00
C681   C     0.91446   0.12369   0.28386   0.00000  Uiso   1.00
C682   C     0.90370   0.13427   0.27231   0.00000  Uiso   1.00
C683   C     0.88376   0.12221   0.25579   0.00000  Uiso   1.00
C684   C     0.87505   0.09937   0.25110   0.00000  Uiso   1.00
Si33   Si    0.92023   0.08684   0.29536   0.00000  Uiso   1.00
C685   C     0.94908   0.10153   0.28055   0.00000  Uiso   1.00
C686   C     0.96470   0.09817   0.29580   0.00000  Uiso   1.00
C687   C     0.98588   0.10831   0.28419   0.00000  Uiso   1.00
C688   C     0.99188   0.12218   0.25686   0.00000  Uiso   1.00
C689   C     0.97605   0.12554   0.24165   0.00000  Uiso   1.00
C690   C     0.95492   0.11530   0.25349   0.00000  Uiso   1.00
C691   C     0.91498   0.10078   0.35866   0.00000  Uiso   1.00
C692   C     0.91482   0.10058   0.39299   0.00000  Uiso   1.00
C693   C     0.91933   0.08614   0.40980   0.00000  Uiso   1.00
C694   C     0.92392   0.07184   0.39246   0.00000  Uiso   1.00
C695   C     0.92405   0.07203   0.35813   0.00000  Uiso   1.00
C696   C     0.91967   0.08656   0.34131   0.00000  Uiso   1.00
Si34   Si    0.91913   0.08606   0.45576   0.00000  Uiso   1.00
C697   C     0.88158   0.01375   0.49549   0.00000  Uiso   1.00
C698   C     0.89637   0.03133   0.51535   0.00000  Uiso   1.00
C699   C     0.90742   0.05269   0.50328   0.00000  Uiso   1.00
C700   C     0.90406   0.05700   0.47136   0.00000  Uiso   1.00
C701   C     0.88933   0.03966   0.45157   0.00000  Uiso   1.00
C702   C     0.87816   0.01823   0.46339   0.00000  Uiso   1.00
C703   C     0.90477   0.10087   0.47034   0.00000  Uiso   1.00
C704   C     0.91621   0.12351   0.47692   0.00000  Uiso   1.00
C705   C     0.90542   0.13423   0.48798   0.00000  Uiso   1.00
C706   C     0.88275   0.12239   0.49262   0.00000  Uiso   1.00
C707   C     0.87130   0.09960   0.48562   0.00000  Uiso   1.00
C708   C     0.88228   0.08906   0.47463   0.00000  Uiso   1.00
C709   C     0.95268   0.11003   0.50234   0.00000  Uiso   1.00
C710   C     0.97379   0.12020   0.51428   0.00000  Uiso   1.00
C711   C     0.99055   0.12041   0.49567   0.00000  Uiso   1.00
C712   C     0.98539   0.11002   0.46492   0.00000  Uiso   1.00
C713   C     0.96422   0.09994   0.45323   0.00000  Uiso   1.00
C714   C     0.94773   0.09990   0.47174   0.00000  Uiso   1.00
H453   H     0.87901   0.07097   0.25865   0.00000  Uiso   1.00
H454   H     0.93018   0.13336   0.29695   0.00000  Uiso   1.00
H455   H     0.91085   0.15227   0.27647   0.00000  Uiso   1.00
H456   H     0.85947   0.08954   0.23785   0.00000  Uiso   1.00
H457   H     0.96015   0.08721   0.31734   0.00000  Uiso   1.00
H458   H     0.99801   0.10526   0.29648   0.00000  Uiso   1.00
H459   H     0.98040   0.13655   0.22027   0.00000  Uiso   1.00
H460   H     0.94257   0.11811   0.24131   0.00000  Uiso   1.00
H461   H     0.91128   0.11232   0.34549   0.00000  Uiso   1.00
H462   H     0.91104   0.11200   0.40665   0.00000  Uiso   1.00
H463   H     0.92745   0.06018   0.40570   0.00000  Uiso   1.00
H464   H     0.92763   0.06048   0.34443   0.00000  Uiso   1.00
H465   H     0.89917   0.02823   0.54085   0.00000  Uiso   1.00
H466   H     0.91904   0.06648   0.51918   0.00000  Uiso   1.00
H467   H     0.88657   0.04301   0.42614   0.00000  Uiso   1.00
H468   H     0.86668   0.00462   0.44722   0.00000  Uiso   1.00
H469   H     0.93412   0.13301   0.47341   0.00000  Uiso   1.00
H470   H     0.91485   0.15217   0.49344   0.00000  Uiso   1.00
H471   H     0.85340   0.08993   0.48867   0.00000  Uiso   1.00
H472   H     0.87307   0.07105   0.46919   0.00000  Uiso   1.00
H473   H     0.93961   0.11003   0.51724   0.00000  Uiso   1.00
H474   H     0.97740   0.12836   0.53850   0.00000  Uiso   1.00
H475   H     0.99820   0.10970   0.44987   0.00000  Uiso   1.00
H476   H     0.96040   0.09181   0.42892   0.00000  Uiso   1.00
C715   C     0.87012   0.24137   0.00785   0.00000  Uiso   1.00
C716   C     0.84910   0.22616   0.99668   0.00000  Uiso   1.00
C717   C     0.83832   0.20472   0.00847   0.00000  Uiso   1.00
C718   C     0.84826   0.19791   0.03126   0.00000  Uiso   1.00
C719   C     0.86898   0.21300   0.04278   0.00000  Uiso   1.00
C720   C     0.87990   0.23451   0.03126   0.00000  Uiso   1.00
H477   H     0.84094   0.23128   0.97858   0.00000  Uiso   1.00
H478   H     0.82167   0.19290   0.99961   0.00000  Uiso   1.00
H479   H     0.87687   0.20768   0.06114   0.00000  Uiso   1.00
H480   H     0.89648   0.24619   0.04038   0.00000  Uiso   1.00
C721   C     0.86875   0.16647   0.01117   0.00000  Uiso   1.00
C722   C     0.84933   0.15456   0.02832   0.00000  Uiso   1.00
C723   C     0.84080   0.13199   0.03322   0.00000  Uiso   1.00
C724   C     0.85163   0.12144   0.02161   0.00000  Uiso   1.00
C725   C     0.87134   0.13338   0.00455   0.00000  Uiso   1.00
C726   C     0.87972   0.15611   0.99942   0.00000  Uiso   1.00
Si35   Si    0.83472   0.16850   0.04539   0.00000  Uiso   1.00
C727   C     0.80582   0.15289   0.03076   0.00000  Uiso   1.00
C728   C     0.78848   0.14480   0.05260   0.00000  Uiso   1.00
C729   C     0.76719   0.13415   0.04136   0.00000  Uiso   1.00
C730   C     0.76278   0.13129   0.00774   0.00000  Uiso   1.00
C731   C     0.78037   0.13925   0.98588   0.00000  Uiso   1.00
C732   C     0.80159   0.14983   0.99741   0.00000  Uiso   1.00
C733   C     0.84293   0.15648   0.10807   0.00000  Uiso   1.00
C734   C     0.84297   0.15640   0.14239   0.00000  Uiso   1.00
C735   C     0.83574   0.16860   0.15976   0.00000  Uiso   1.00
C736   C     0.82856   0.18098   0.14302   0.00000  Uiso   1.00
C737   C     0.82848   0.18102   0.10868   0.00000  Uiso   1.00
C738   C     0.83557   0.16868   0.09131   0.00000  Uiso   1.00
Si36   Si    0.83562   0.16849   0.20571   0.00000  Uiso   1.00
C739   C     0.87280   0.24135   0.24475   0.00000  Uiso   1.00
C740   C     0.85835   0.22399   0.26496   0.00000  Uiso   1.00
C741   C     0.84727   0.20246   0.25316   0.00000  Uiso   1.00
C742   C     0.85028   0.19773   0.22119   0.00000  Uiso   1.00
C743   C     0.86462   0.21487   0.20105   0.00000  Uiso   1.00
C744   C     0.87582   0.23647   0.21256   0.00000  Uiso   1.00
C745   C     0.85024   0.15415   0.22078   0.00000  Uiso   1.00
C746   C     0.83868   0.13206   0.23021   0.00000  Uiso   1.00
C747   C     0.84954   0.12156   0.24162   0.00000  Uiso   1.00
C748   C     0.87237   0.13309   0.24380   0.00000  Uiso   1.00
C749   C     0.88393   0.15534   0.23415   0.00000  Uiso   1.00
C750   C     0.87289   0.16566   0.22275   0.00000  Uiso   1.00
C751   C     0.80267   0.14832   0.25385   0.00000  Uiso   1.00
C752   C     0.78154   0.13803   0.26569   0.00000  Uiso   1.00
C753   C     0.76402   0.13287   0.24463   0.00000  Uiso   1.00
C754   C     0.76834   0.13823   0.21148   0.00000  Uiso   1.00
C755   C     0.78955   0.14851   0.19995   0.00000  Uiso   1.00
C756   C     0.80686   0.15377   0.22101   0.00000  Uiso   1.00
H481   H     0.87549   0.18441   0.00682   0.00000  Uiso   1.00
H482   H     0.82526   0.12240   0.04670   0.00000  Uiso   1.00
H483   H     0.84470   0.10354   0.02614   0.00000  Uiso   1.00
H484   H     0.89507   0.16585   0.98571   0.00000  Uiso   1.00
H485   H     0.79173   0.14690   0.07921   0.00000  Uiso   1.00
H486   H     0.75365   0.12777   0.05914   0.00000  Uiso   1.00
H487   H     0.77740   0.13731   0.95926   0.00000  Uiso   1.00
H488   H     0.81535   0.15607   0.97994   0.00000  Uiso   1.00
H489   H     0.84882   0.14676   0.09441   0.00000  Uiso   1.00
H490   H     0.84884   0.14657   0.15560   0.00000  Uiso   1.00
H491   H     0.82288   0.19086   0.15676   0.00000  Uiso   1.00
H492   H     0.82272   0.19093   0.09543   0.00000  Uiso   1.00
H493   H     0.85583   0.22738   0.29052   0.00000  Uiso   1.00
H494   H     0.83595   0.18889   0.26939   0.00000  Uiso   1.00
H495   H     0.86707   0.21122   0.17553   0.00000  Uiso   1.00
H496   H     0.88701   0.24989   0.19609   0.00000  Uiso   1.00
H497   H     0.82063   0.12282   0.22869   0.00000  Uiso   1.00
H498   H     0.84006   0.10406   0.24931   0.00000  Uiso   1.00
H499   H     0.90194   0.16471   0.23537   0.00000  Uiso   1.00
H500   H     0.88216   0.18323   0.21513   0.00000  Uiso   1.00
H501   H     0.81637   0.15229   0.27072   0.00000  Uiso   1.00
H502   H     0.77860   0.13407   0.29196   0.00000  Uiso   1.00
H503   H     0.75481   0.13412   0.19429   0.00000  Uiso   1.00
H504   H     0.79271   0.15255   0.17368   0.00000  Uiso   1.00
C757   C     0.63428   0.26385   0.25694   0.00000  Uiso   1.00
C758   C     0.65496   0.27917   0.24488   0.00000  Uiso   1.00
C759   C     0.66578   0.30072   0.25663   0.00000  Uiso   1.00
C760   C     0.65625   0.30746   0.28042   0.00000  Uiso   1.00
C761   C     0.63582   0.29231   0.29268   0.00000  Uiso   1.00
C762   C     0.62485   0.27072   0.28112   0.00000  Uiso   1.00
H505   H     0.66281   0.27406   0.22608   0.00000  Uiso   1.00
H506   H     0.68214   0.31268   0.24702   0.00000  Uiso   1.00
H507   H     0.62822   0.29763   0.31169   0.00000  Uiso   1.00
H508   H     0.60851   0.25898   0.29085   0.00000  Uiso   1.00
C763   C     0.63604   0.33897   0.26270   0.00000  Uiso   1.00
C764   C     0.65572   0.35098   0.27927   0.00000  Uiso   1.00
C765   C     0.66450   0.37365   0.28388   0.00000  Uiso   1.00
C766   C     0.65374   0.38423   0.27234   0.00000  Uiso   1.00
C767   C     0.63381   0.37218   0.25581   0.00000  Uiso   1.00
C768   C     0.62510   0.34934   0.25111   0.00000  Uiso   1.00
Si37   Si    0.67027   0.33680   0.29536   0.00000  Uiso   1.00
C769   C     0.69912   0.35149   0.28053   0.00000  Uiso   1.00
C770   C     0.71476   0.34815   0.29579   0.00000  Uiso   1.00
C771   C     0.73594   0.35832   0.28419   0.00000  Uiso   1.00
C772   C     0.74193   0.37219   0.25686   0.00000  Uiso   1.00
C773   C     0.72608   0.37553   0.24165   0.00000  Uiso   1.00
C774   C     0.70495   0.36527   0.25348   0.00000  Uiso   1.00
C775   C     0.66502   0.35073   0.35866   0.00000  Uiso   1.00
C776   C     0.66486   0.35053   0.39299   0.00000  Uiso   1.00
C777   C     0.66937   0.33609   0.40979   0.00000  Uiso   1.00
C778   C     0.67396   0.32179   0.39245   0.00000  Uiso   1.00
C779   C     0.67410   0.32198   0.35812   0.00000  Uiso   1.00
C780   C     0.66972   0.33652   0.34131   0.00000  Uiso   1.00
Si38   Si    0.66917   0.33601   0.45575   0.00000  Uiso   1.00
C781   C     0.63155   0.26370   0.49549   0.00000  Uiso   1.00
C782   C     0.64635   0.28127   0.51536   0.00000  Uiso   1.00
C783   C     0.65743   0.30264   0.50328   0.00000  Uiso   1.00
C784   C     0.65408   0.30695   0.47136   0.00000  Uiso   1.00
C785   C     0.63935   0.28962   0.45157   0.00000  Uiso   1.00
C786   C     0.62815   0.26819   0.46339   0.00000  Uiso   1.00
C787   C     0.65481   0.35082   0.47031   0.00000  Uiso   1.00
C788   C     0.66626   0.37346   0.47688   0.00000  Uiso   1.00
C789   C     0.65547   0.38418   0.48794   0.00000  Uiso   1.00
C790   C     0.63280   0.37235   0.49257   0.00000  Uiso   1.00
C791   C     0.62134   0.34956   0.48557   0.00000  Uiso   1.00
C792   C     0.63232   0.33901   0.47458   0.00000  Uiso   1.00
C793   C     0.70270   0.35999   0.50234   0.00000  Uiso   1.00
C794   C     0.72382   0.37019   0.51428   0.00000  Uiso   1.00
C795   C     0.74059   0.37042   0.49567   0.00000  Uiso   1.00
C796   C     0.73544   0.36003   0.46492   0.00000  Uiso   1.00
C797   C     0.71427   0.34992   0.45324   0.00000  Uiso   1.00
C798   C     0.69777   0.34986   0.47175   0.00000  Uiso   1.00
H509   H     0.62905   0.32094   0.25866   0.00000  Uiso   1.00
H510   H     0.68022   0.38332   0.29697   0.00000  Uiso   1.00
H511   H     0.66089   0.40224   0.27651   0.00000  Uiso   1.00
H512   H     0.60952   0.33951   0.23786   0.00000  Uiso   1.00
H513   H     0.71021   0.33718   0.31732   0.00000  Uiso   1.00
H514   H     0.74807   0.35529   0.29647   0.00000  Uiso   1.00
H515   H     0.73042   0.38655   0.22027   0.00000  Uiso   1.00
H516   H     0.69258   0.36806   0.24130   0.00000  Uiso   1.00
H517   H     0.66131   0.36227   0.34549   0.00000  Uiso   1.00
H518   H     0.66107   0.36194   0.40666   0.00000  Uiso   1.00
H519   H     0.67749   0.31013   0.40568   0.00000  Uiso   1.00
H520   H     0.67768   0.31043   0.34442   0.00000  Uiso   1.00
H521   H     0.64914   0.27817   0.54086   0.00000  Uiso   1.00
H522   H     0.66906   0.31641   0.51919   0.00000  Uiso   1.00
H523   H     0.63659   0.29297   0.42614   0.00000  Uiso   1.00
H524   H     0.61666   0.25458   0.44722   0.00000  Uiso   1.00
H525   H     0.68417   0.38296   0.47338   0.00000  Uiso   1.00
H526   H     0.66490   0.40213   0.49341   0.00000  Uiso   1.00
H527   H     0.60344   0.33989   0.48861   0.00000  Uiso   1.00
H528   H     0.62311   0.32101   0.46914   0.00000  Uiso   1.00
H529   H     0.68963   0.35998   0.51724   0.00000  Uiso   1.00
H530   H     0.72741   0.37836   0.53849   0.00000  Uiso   1.00
H531   H     0.74826   0.35973   0.44987   0.00000  Uiso   1.00
H532   H     0.71045   0.34179   0.42892   0.00000  Uiso   1.00
C799   C     0.62021   0.49128   0.00792   0.00000  Uiso   1.00
C800   C     0.59917   0.47611   0.99678   0.00000  Uiso   1.00
C801   C     0.58836   0.45467   0.00859   0.00000  Uiso   1.00
C802   C     0.59829   0.44784   0.03136   0.00000  Uiso   1.00
C803   C     0.61902   0.46290   0.04287   0.00000  Uiso   1.00
C804   C     0.62997   0.48441   0.03132   0.00000  Uiso   1.00
H533   H     0.59103   0.48126   0.97869   0.00000  Uiso   1.00
H534   H     0.57169   0.44288   0.99977   0.00000  Uiso   1.00
H535   H     0.62690   0.45757   0.06123   0.00000  Uiso   1.00
H536   H     0.64657   0.49607   0.04042   0.00000  Uiso   1.00
C805   C     0.61879   0.41642   0.01115   0.00000  Uiso   1.00
C806   C     0.59938   0.40450   0.02832   0.00000  Uiso   1.00
C807   C     0.59086   0.38193   0.03321   0.00000  Uiso   1.00
C808   C     0.60168   0.37138   0.02158   0.00000  Uiso   1.00
C809   C     0.62139   0.38334   0.00452   0.00000  Uiso   1.00
C810   C     0.62976   0.40606   0.99938   0.00000  Uiso   1.00
Si39   Si    0.58476   0.41842   0.04542   0.00000  Uiso   1.00
C811   C     0.55587   0.40284   0.03073   0.00000  Uiso   1.00
C812   C     0.53853   0.39472   0.05257   0.00000  Uiso   1.00
C813   C     0.51724   0.38402   0.04131   0.00000  Uiso   1.00
C814   C     0.51285   0.38115   0.00768   0.00000  Uiso   1.00
C815   C     0.53045   0.38915   0.98583   0.00000  Uiso   1.00
C816   C     0.55166   0.39977   0.99738   0.00000  Uiso   1.00
C817   C     0.59296   0.40639   0.10810   0.00000  Uiso   1.00
C818   C     0.59301   0.40632   0.14242   0.00000  Uiso   1.00
C819   C     0.58577   0.41852   0.15978   0.00000  Uiso   1.00
C820   C     0.57858   0.43089   0.14303   0.00000  Uiso   1.00
C821   C     0.57850   0.43093   0.10869   0.00000  Uiso   1.00
C822   C     0.58559   0.41858   0.09134   0.00000  Uiso   1.00
Si40   Si    0.58566   0.41844   0.20572   0.00000  Uiso   1.00
C823   C     0.62291   0.49131   0.24475   0.00000  Uiso   1.00
C824   C     0.60843   0.47396   0.26494   0.00000  Uiso   1.00
C825   C     0.59731   0.45243   0.25313   0.00000  Uiso   1.00
C826   C     0.60031   0.44770   0.22115   0.00000  Uiso   1.00
C827   C     0.61466   0.46483   0.20101   0.00000  Uiso   1.00
C828   C     0.62590   0.48643   0.21255   0.00000  Uiso   1.00
C829   C     0.60029   0.40412   0.22082   0.00000  Uiso   1.00
C830   C     0.58872   0.38203   0.23025   0.00000  Uiso   1.00
C831   C     0.59958   0.37153   0.24166   0.00000  Uiso   1.00
C832   C     0.62242   0.38305   0.24383   0.00000  Uiso   1.00
C833   C     0.63397   0.40530   0.23419   0.00000  Uiso   1.00
C834   C     0.62294   0.41563   0.22279   0.00000  Uiso   1.00
C835   C     0.55276   0.39828   0.25391   0.00000  Uiso   1.00
C836   C     0.53164   0.38795   0.26579   0.00000  Uiso   1.00
C837   C     0.51409   0.38276   0.24476   0.00000  Uiso   1.00
C838   C     0.51838   0.38814   0.21161   0.00000  Uiso   1.00
C839   C     0.53958   0.39846   0.20004   0.00000  Uiso   1.00
C840   C     0.55692   0.40373   0.22107   0.00000  Uiso   1.00
H537   H     0.62553   0.43435   0.00681   0.00000  Uiso   1.00
H538   H     0.57532   0.37234   0.04669   0.00000  Uiso   1.00
H539   H     0.59477   0.35349   0.02611   0.00000  Uiso   1.00
H540   H     0.64512   0.41581   0.98568   0.00000  Uiso   1.00
H541   H     0.54177   0.39683   0.07918   0.00000  Uiso   1.00
H542   H     0.50369   0.37761   0.05906   0.00000  Uiso   1.00
H543   H     0.52748   0.38720   0.95921   0.00000  Uiso   1.00
H544   H     0.56543   0.40605   0.97993   0.00000  Uiso   1.00
H545   H     0.59885   0.39666   0.09445   0.00000  Uiso   1.00
H546   H     0.59889   0.39650   0.15564   0.00000  Uiso   1.00
H547   H     0.57290   0.44078   0.15676   0.00000  Uiso   1.00
H548   H     0.57274   0.44083   0.09543   0.00000  Uiso   1.00
H549   H     0.60593   0.47735   0.29051   0.00000  Uiso   1.00
H550   H     0.58597   0.43887   0.26935   0.00000  Uiso   1.00
H551   H     0.61709   0.46118   0.17548   0.00000  Uiso   1.00
H552   H     0.63710   0.49985   0.19608   0.00000  Uiso   1.00
H553   H     0.57068   0.37280   0.22873   0.00000  Uiso   1.00
H554   H     0.59010   0.35403   0.24934   0.00000  Uiso   1.00
H555   H     0.65199   0.41468   0.23540   0.00000  Uiso   1.00
H556   H     0.63221   0.43320   0.21517   0.00000  Uiso   1.00
H557   H     0.56648   0.40227   0.27076   0.00000  Uiso   1.00
H558   H     0.52871   0.38398   0.29205   0.00000  Uiso   1.00
H559   H     0.50483   0.38401   0.19445   0.00000  Uiso   1.00
H560   H     0.54272   0.40251   0.17378   0.00000  Uiso   1.00
C841   C     0.88426   0.26384   0.25695   0.00000  Uiso   1.00
C842   C     0.90493   0.27918   0.24490   0.00000  Uiso   1.00
C843   C     0.91573   0.30073   0.25665   0.00000  Uiso   1.00
C844   C     0.90619   0.30745   0.28042   0.00000  Uiso   1.00
C845   C     0.88576   0.29230   0.29268   0.00000  Uiso   1.00
C846   C     0.87481   0.27071   0.28111   0.00000  Uiso   1.00
H561   H     0.91280   0.27408   0.22611   0.00000  Uiso   1.00
H562   H     0.93209   0.31271   0.24704   0.00000  Uiso   1.00
H563   H     0.87815   0.29761   0.31168   0.00000  Uiso   1.00
H564   H     0.85847   0.25895   0.29084   0.00000  Uiso   1.00
C847   C     0.88597   0.33898   0.26269   0.00000  Uiso   1.00
C848   C     0.90565   0.35099   0.27926   0.00000  Uiso   1.00
C849   C     0.91443   0.37366   0.28386   0.00000  Uiso   1.00
C850   C     0.90369   0.38425   0.27231   0.00000  Uiso   1.00
C851   C     0.88375   0.37220   0.25578   0.00000  Uiso   1.00
C852   C     0.87503   0.34936   0.25109   0.00000  Uiso   1.00
Si41   Si    0.92018   0.33680   0.29537   0.00000  Uiso   1.00
C853   C     0.94903   0.35148   0.28055   0.00000  Uiso   1.00
C854   C     0.96466   0.34813   0.29580   0.00000  Uiso   1.00
C855   C     0.98584   0.35829   0.28419   0.00000  Uiso   1.00
C856   C     0.99183   0.37216   0.25686   0.00000  Uiso   1.00
C857   C     0.97599   0.37551   0.24166   0.00000  Uiso   1.00
C858   C     0.95487   0.36526   0.25350   0.00000  Uiso   1.00
C859   C     0.91494   0.35074   0.35866   0.00000  Uiso   1.00
C860   C     0.91479   0.35054   0.39300   0.00000  Uiso   1.00
C861   C     0.91929   0.33610   0.40980   0.00000  Uiso   1.00
C862   C     0.92388   0.32180   0.39246   0.00000  Uiso   1.00
C863   C     0.92401   0.32198   0.35813   0.00000  Uiso   1.00
C864   C     0.91964   0.33652   0.34132   0.00000  Uiso   1.00
Si42   Si    0.91909   0.33602   0.45576   0.00000  Uiso   1.00
C865   C     0.88154   0.26370   0.49548   0.00000  Uiso   1.00
C866   C     0.89633   0.28128   0.51535   0.00000  Uiso   1.00
C867   C     0.90739   0.30264   0.50328   0.00000  Uiso   1.00
C868   C     0.90402   0.30696   0.47136   0.00000  Uiso   1.00
C869   C     0.88930   0.28962   0.45157   0.00000  Uiso   1.00
C870   C     0.87813   0.26819   0.46338   0.00000  Uiso   1.00
C871   C     0.90474   0.35083   0.47034   0.00000  Uiso   1.00
C872   C     0.91619   0.37347   0.47691   0.00000  Uiso   1.00
C873   C     0.90541   0.38420   0.48797   0.00000  Uiso   1.00
C874   C     0.88274   0.37238   0.49261   0.00000  Uiso   1.00
C875   C     0.87128   0.34958   0.48563   0.00000  Uiso   1.00
C876   C     0.88224   0.33903   0.47463   0.00000  Uiso   1.00
C877   C     0.95263   0.35999   0.50233   0.00000  Uiso   1.00
C878   C     0.97374   0.37017   0.51428   0.00000  Uiso   1.00
C879   C     0.99050   0.37039   0.49566   0.00000  Uiso   1.00
C880   C     0.98535   0.35999   0.46492   0.00000  Uiso   1.00
C881   C     0.96418   0.34990   0.45324   0.00000  Uiso   1.00
C882   C     0.94769   0.34986   0.47174   0.00000  Uiso   1.00
H565   H     0.87897   0.32095   0.25865   0.00000  Uiso   1.00
H566   H     0.93015   0.38332   0.29696   0.00000  Uiso   1.00
H567   H     0.91084   0.40225   0.27648   0.00000  Uiso   1.00
H568   H     0.85945   0.33953   0.23783   0.00000  Uiso   1.00
H569   H     0.96011   0.33717   0.31733   0.00000  Uiso   1.00
H570   H     0.99797   0.35525   0.29647   0.00000  Uiso   1.00
H571   H     0.98034   0.38653   0.22028   0.00000  Uiso   1.00
H572   H     0.94251   0.36806   0.24132   0.00000  Uiso   1.00
H573   H     0.91124   0.36229   0.34549   0.00000  Uiso   1.00
H574   H     0.91101   0.36196   0.40666   0.00000  Uiso   1.00
H575   H     0.92741   0.31014   0.40570   0.00000  Uiso   1.00
H576   H     0.92759   0.31043   0.34443   0.00000  Uiso   1.00
H577   H     0.89913   0.27818   0.54084   0.00000  Uiso   1.00
H578   H     0.91901   0.31643   0.51918   0.00000  Uiso   1.00
H579   H     0.88653   0.29296   0.42614   0.00000  Uiso   1.00
H580   H     0.86664   0.25457   0.44721   0.00000  Uiso   1.00
H581   H     0.93410   0.38297   0.47339   0.00000  Uiso   1.00
H582   H     0.91484   0.40215   0.49343   0.00000  Uiso   1.00
H583   H     0.85338   0.33992   0.48868   0.00000  Uiso   1.00
H584   H     0.87303   0.32103   0.46920   0.00000  Uiso   1.00
H585   H     0.93955   0.35998   0.51724   0.00000  Uiso   1.00
H586   H     0.97734   0.37834   0.53849   0.00000  Uiso   1.00
H587   H     0.99817   0.35968   0.44987   0.00000  Uiso   1.00
H588   H     0.96036   0.34177   0.42892   0.00000  Uiso   1.00
C883   C     0.87012   0.49137   0.00786   0.00000  Uiso   1.00
C884   C     0.84910   0.47616   0.99669   0.00000  Uiso   1.00
C885   C     0.83832   0.45471   0.00847   0.00000  Uiso   1.00
C886   C     0.84826   0.44791   0.03127   0.00000  Uiso   1.00
C887   C     0.86898   0.46300   0.04278   0.00000  Uiso   1.00
C888   C     0.87990   0.48451   0.03126   0.00000  Uiso   1.00
H589   H     0.84094   0.48128   0.97859   0.00000  Uiso   1.00
H590   H     0.82167   0.44290   0.99962   0.00000  Uiso   1.00
H591   H     0.87687   0.45768   0.06115   0.00000  Uiso   1.00
H592   H     0.89648   0.49619   0.04039   0.00000  Uiso   1.00
C889   C     0.86875   0.41647   0.01117   0.00000  Uiso   1.00
C890   C     0.84933   0.40456   0.02833   0.00000  Uiso   1.00
C891   C     0.84080   0.38199   0.03323   0.00000  Uiso   1.00
C892   C     0.85162   0.37143   0.02161   0.00000  Uiso   1.00
C893   C     0.87133   0.38337   0.00455   0.00000  Uiso   1.00
C894   C     0.87972   0.40610   0.99942   0.00000  Uiso   1.00
Si43   Si    0.83472   0.41850   0.04539   0.00000  Uiso   1.00
C895   C     0.80582   0.40290   0.03076   0.00000  Uiso   1.00
C896   C     0.78848   0.39480   0.05260   0.00000  Uiso   1.00
C897   C     0.76719   0.38415   0.04136   0.00000  Uiso   1.00
C898   C     0.76279   0.38129   0.00773   0.00000  Uiso   1.00
C899   C     0.78038   0.38926   0.98588   0.00000  Uiso   1.00
C900   C     0.80159   0.39983   0.99742   0.00000  Uiso   1.00
C901   C     0.84293   0.40648   0.10807   0.00000  Uiso   1.00
C902   C     0.84297   0.40640   0.14239   0.00000  Uiso   1.00
C903   C     0.83574   0.41860   0.15977   0.00000  Uiso   1.00
C904   C     0.82856   0.43098   0.14302   0.00000  Uiso   1.00
C905   C     0.82848   0.43102   0.10868   0.00000  Uiso   1.00
C906   C     0.83557   0.41868   0.09132   0.00000  Uiso   1.00
Si44   Si    0.83562   0.41849   0.20571   0.00000  Uiso   1.00
C907   C     0.87281   0.49135   0.24475   0.00000  Uiso   1.00
C908   C     0.85835   0.47399   0.26496   0.00000  Uiso   1.00
C909   C     0.84727   0.45246   0.25316   0.00000  Uiso   1.00
C910   C     0.85028   0.44773   0.22119   0.00000  Uiso   1.00
C911   C     0.86462   0.46487   0.20104   0.00000  Uiso   1.00
C912   C     0.87582   0.48647   0.21256   0.00000  Uiso   1.00
C913   C     0.85024   0.40415   0.22078   0.00000  Uiso   1.00
C914   C     0.83867   0.38206   0.23021   0.00000  Uiso   1.00
C915   C     0.84953   0.37156   0.24162   0.00000  Uiso   1.00
C916   C     0.87236   0.38308   0.24380   0.00000  Uiso   1.00
C917   C     0.88392   0.40533   0.23415   0.00000  Uiso   1.00
C918   C     0.87289   0.41566   0.22275   0.00000  Uiso   1.00
C919   C     0.80267   0.39833   0.25386   0.00000  Uiso   1.00
C920   C     0.78155   0.38803   0.26570   0.00000  Uiso   1.00
C921   C     0.76402   0.38287   0.24464   0.00000  Uiso   1.00
C922   C     0.76834   0.38823   0.21149   0.00000  Uiso   1.00
C923   C     0.78955   0.39851   0.19995   0.00000  Uiso   1.00
C924   C     0.80686   0.40377   0.22102   0.00000  Uiso   1.00
H593   H     0.87550   0.43440   0.00682   0.00000  Uiso   1.00
H594   H     0.82526   0.37241   0.04670   0.00000  Uiso   1.00
H595   H     0.84470   0.35353   0.02615   0.00000  Uiso   1.00
H596   H     0.89507   0.41584   0.98571   0.00000  Uiso   1.00
H597   H     0.79173   0.39690   0.07921   0.00000  Uiso   1.00
H598   H     0.75365   0.37777   0.05913   0.00000  Uiso   1.00
H599   H     0.77741   0.38731   0.95926   0.00000  Uiso   1.00
H600   H     0.81536   0.40608   0.97994   0.00000  Uiso   1.00
H601   H     0.84882   0.39676   0.09441   0.00000  Uiso   1.00
H602   H     0.84884   0.39657   0.15560   0.00000  Uiso   1.00
H603   H     0.82288   0.44086   0.15676   0.00000  Uiso   1.00
H604   H     0.82272   0.44093   0.09543   0.00000  Uiso   1.00
H605   H     0.85583   0.47739   0.29052   0.00000  Uiso   1.00
H606   H     0.83594   0.43890   0.26939   0.00000  Uiso   1.00
H607   H     0.86707   0.46122   0.17552   0.00000  Uiso   1.00
H608   H     0.88701   0.49989   0.19608   0.00000  Uiso   1.00
H609   H     0.82063   0.37283   0.22869   0.00000  Uiso   1.00
H610   H     0.84005   0.35406   0.24930   0.00000  Uiso   1.00
H611   H     0.90194   0.41471   0.23537   0.00000  Uiso   1.00
H612   H     0.88216   0.43323   0.21514   0.00000  Uiso   1.00
H613   H     0.81638   0.40230   0.27073   0.00000  Uiso   1.00
H614   H     0.77860   0.38407   0.29196   0.00000  Uiso   1.00
H615   H     0.75480   0.38411   0.19430   0.00000  Uiso   1.00
H616   H     0.79271   0.40255   0.17369   0.00000  Uiso   1.00
C925   C     0.63431   0.01393   0.75697   0.00000  Uiso   1.00
C926   C     0.65499   0.02925   0.74492   0.00000  Uiso   1.00
C927   C     0.66581   0.05080   0.75667   0.00000  Uiso   1.00
C928   C     0.65627   0.05754   0.78044   0.00000  Uiso   1.00
C929   C     0.63584   0.04239   0.79270   0.00000  Uiso   1.00
C930   C     0.62488   0.02080   0.78114   0.00000  Uiso   1.00
H617   H     0.66285   0.02414   0.72613   0.00000  Uiso   1.00
H618   H     0.68216   0.06277   0.74706   0.00000  Uiso   1.00
H619   H     0.62824   0.04771   0.81170   0.00000  Uiso   1.00
H620   H     0.60854   0.00905   0.79087   0.00000  Uiso   1.00
C931   C     0.63603   0.08902   0.76269   0.00000  Uiso   1.00
C932   C     0.65572   0.10105   0.77925   0.00000  Uiso   1.00
C933   C     0.66448   0.12372   0.78385   0.00000  Uiso   1.00
C934   C     0.65371   0.13429   0.77230   0.00000  Uiso   1.00
C935   C     0.63377   0.12222   0.75579   0.00000  Uiso   1.00
C936   C     0.62507   0.09938   0.75110   0.00000  Uiso   1.00
Si45   Si    0.67027   0.08688   0.79536   0.00000  Uiso   1.00
C937   C     0.69912   0.10156   0.78054   0.00000  Uiso   1.00
C938   C     0.71475   0.09820   0.79579   0.00000  Uiso   1.00
C939   C     0.73593   0.10835   0.78418   0.00000  Uiso   1.00
C940   C     0.74193   0.12221   0.75685   0.00000  Uiso   1.00
C941   C     0.72609   0.12557   0.74164   0.00000  Uiso   1.00
C942   C     0.70496   0.11533   0.75348   0.00000  Uiso   1.00
C943   C     0.66501   0.10081   0.85866   0.00000  Uiso   1.00
C944   C     0.66485   0.10061   0.89299   0.00000  Uiso   1.00
C945   C     0.66936   0.08617   0.90980   0.00000  Uiso   1.00
C946   C     0.67395   0.07188   0.89245   0.00000  Uiso   1.00
C947   C     0.67409   0.07207   0.85812   0.00000  Uiso   1.00
C948   C     0.66971   0.08660   0.84131   0.00000  Uiso   1.00
Si46   Si    0.66917   0.08609   0.95575   0.00000  Uiso   1.00
C949   C     0.63158   0.01378   0.99547   0.00000  Uiso   1.00
C950   C     0.64638   0.03136   0.01534   0.00000  Uiso   1.00
C951   C     0.65745   0.05272   0.00327   0.00000  Uiso   1.00
C952   C     0.65409   0.05703   0.97135   0.00000  Uiso   1.00
C953   C     0.63937   0.03970   0.95155   0.00000  Uiso   1.00
C954   C     0.62818   0.01827   0.96337   0.00000  Uiso   1.00
C955   C     0.65479   0.10089   0.97035   0.00000  Uiso   1.00
C956   C     0.66623   0.12353   0.97692   0.00000  Uiso   1.00
C957   C     0.65543   0.13424   0.98798   0.00000  Uiso   1.00
C958   C     0.63276   0.12240   0.99262   0.00000  Uiso   1.00
C959   C     0.62132   0.09961   0.98562   0.00000  Uiso   1.00
C960   C     0.63230   0.08907   0.97463   0.00000  Uiso   1.00
C961   C     0.70271   0.11005   0.00234   0.00000  Uiso   1.00
C962   C     0.72382   0.12022   0.01428   0.00000  Uiso   1.00
C963   C     0.74058   0.12044   0.99567   0.00000  Uiso   1.00
C964   C     0.73543   0.11005   0.96492   0.00000  Uiso   1.00
C965   C     0.71426   0.09996   0.95323   0.00000  Uiso   1.00
C966   C     0.69776   0.09993   0.97174   0.00000  Uiso   1.00
H621   H     0.62905   0.07100   0.75866   0.00000  Uiso   1.00
H622   H     0.68021   0.13340   0.79693   0.00000  Uiso   1.00
H623   H     0.66085   0.15229   0.77646   0.00000  Uiso   1.00
H624   H     0.60949   0.08954   0.73786   0.00000  Uiso   1.00
H625   H     0.71019   0.08724   0.81733   0.00000  Uiso   1.00
H626   H     0.74805   0.10530   0.79647   0.00000  Uiso   1.00
H627   H     0.73044   0.13658   0.72025   0.00000  Uiso   1.00
H628   H     0.69261   0.11813   0.74129   0.00000  Uiso   1.00
H629   H     0.66131   0.11236   0.84549   0.00000  Uiso   1.00
H630   H     0.66106   0.11202   0.90666   0.00000  Uiso   1.00
H631   H     0.67748   0.06022   0.90569   0.00000  Uiso   1.00
H632   H     0.67768   0.06052   0.84443   0.00000  Uiso   1.00
H633   H     0.64917   0.02826   0.04084   0.00000  Uiso   1.00
H634   H     0.66907   0.06650   0.01917   0.00000  Uiso   1.00
H635   H     0.63661   0.04305   0.92611   0.00000  Uiso   1.00
H636   H     0.61669   0.00465   0.94719   0.00000  Uiso   1.00
H637   H     0.68414   0.13304   0.97342   0.00000  Uiso   1.00
H638   H     0.66485   0.15219   0.99345   0.00000  Uiso   1.00
H639   H     0.60342   0.08993   0.98866   0.00000  Uiso   1.00
H640   H     0.62310   0.07107   0.96919   0.00000  Uiso   1.00
H641   H     0.68964   0.11005   0.01724   0.00000  Uiso   1.00
H642   H     0.72742   0.12839   0.03850   0.00000  Uiso   1.00
H643   H     0.74824   0.10973   0.94987   0.00000  Uiso   1.00
H644   H     0.71043   0.09184   0.92892   0.00000  Uiso   1.00
C967   C     0.62012   0.24137   0.50786   0.00000  Uiso   1.00
C968   C     0.59910   0.22617   0.49669   0.00000  Uiso   1.00
C969   C     0.58832   0.20472   0.50847   0.00000  Uiso   1.00
C970   C     0.59826   0.19791   0.53126   0.00000  Uiso   1.00
C971   C     0.61898   0.21299   0.54278   0.00000  Uiso   1.00
C972   C     0.62990   0.23451   0.53127   0.00000  Uiso   1.00
H645   H     0.59095   0.23129   0.47859   0.00000  Uiso   1.00
H646   H     0.57167   0.19290   0.49961   0.00000  Uiso   1.00
H647   H     0.62687   0.20768   0.56114   0.00000  Uiso   1.00
H648   H     0.64648   0.24619   0.54039   0.00000  Uiso   1.00
C973   C     0.61875   0.16648   0.51116   0.00000  Uiso   1.00
C974   C     0.59933   0.15456   0.52832   0.00000  Uiso   1.00
C975   C     0.59081   0.13199   0.53322   0.00000  Uiso   1.00
C976   C     0.60163   0.12144   0.52161   0.00000  Uiso   1.00
C977   C     0.62135   0.13338   0.50455   0.00000  Uiso   1.00
C978   C     0.62972   0.15611   0.49942   0.00000  Uiso   1.00
Si47   Si    0.58472   0.16850   0.54539   0.00000  Uiso   1.00
C979   C     0.55582   0.15290   0.53076   0.00000  Uiso   1.00
C980   C     0.53849   0.14480   0.55260   0.00000  Uiso   1.00
C981   C     0.51719   0.13415   0.54137   0.00000  Uiso   1.00
C982   C     0.51278   0.13129   0.50774   0.00000  Uiso   1.00
C983   C     0.53038   0.13926   0.48588   0.00000  Uiso   1.00
C984   C     0.55159   0.14983   0.49741   0.00000  Uiso   1.00
C985   C     0.59293   0.15648   0.60807   0.00000  Uiso   1.00
C986   C     0.59297   0.15640   0.64239   0.00000  Uiso   1.00
C987   C     0.58574   0.16860   0.65976   0.00000  Uiso   1.00
C988   C     0.57856   0.18098   0.64302   0.00000  Uiso   1.00
C989   C     0.57848   0.18102   0.60868   0.00000  Uiso   1.00
C990   C     0.58557   0.16868   0.59132   0.00000  Uiso   1.00
Si48   Si    0.58562   0.16849   0.70571   0.00000  Uiso   1.00
C991   C     0.62281   0.24136   0.74475   0.00000  Uiso   1.00
C992   C     0.60835   0.22400   0.76495   0.00000  Uiso   1.00
C993   C     0.59727   0.20246   0.75316   0.00000  Uiso   1.00
C994   C     0.60028   0.19773   0.72119   0.00000  Uiso   1.00
C995   C     0.61462   0.21487   0.70104   0.00000  Uiso   1.00
C996   C     0.62582   0.23647   0.71255   0.00000  Uiso   1.00
C997   C     0.60024   0.15415   0.72078   0.00000  Uiso   1.00
C998   C     0.58868   0.13206   0.73021   0.00000  Uiso   1.00
C999   C     0.59954   0.12157   0.74163   0.00000  Uiso   1.00
C1000  C     0.62237   0.13309   0.74380   0.00000  Uiso   1.00
C1001  C     0.63393   0.15534   0.73415   0.00000  Uiso   1.00
C1002  C     0.62289   0.16566   0.72275   0.00000  Uiso   1.00
C1003  C     0.55267   0.14832   0.75385   0.00000  Uiso   1.00
C1004  C     0.53155   0.13803   0.76570   0.00000  Uiso   1.00
C1005  C     0.51402   0.13287   0.74463   0.00000  Uiso   1.00
C1006  C     0.51834   0.13823   0.71148   0.00000  Uiso   1.00
C1007  C     0.53955   0.14851   0.69995   0.00000  Uiso   1.00
C1008  C     0.55687   0.15377   0.72101   0.00000  Uiso   1.00
H649   H     0.62549   0.18441   0.50682   0.00000  Uiso   1.00
H650   H     0.57527   0.12240   0.54669   0.00000  Uiso   1.00
H651   H     0.59471   0.10354   0.52614   0.00000  Uiso   1.00
H652   H     0.64508   0.16586   0.48572   0.00000  Uiso   1.00
H653   H     0.54174   0.14690   0.57921   0.00000  Uiso   1.00
H654   H     0.50365   0.12777   0.55914   0.00000  Uiso   1.00
H655   H     0.52740   0.13731   0.45926   0.00000  Uiso   1.00
H656   H     0.56536   0.15607   0.47994   0.00000  Uiso   1.00
H657   H     0.59882   0.14676   0.59441   0.00000  Uiso   1.00
H658   H     0.59884   0.14657   0.65560   0.00000  Uiso   1.00
H659   H     0.57288   0.19086   0.65676   0.00000  Uiso   1.00
H660   H     0.57272   0.19093   0.59543   0.00000  Uiso   1.00
H661   H     0.60584   0.22739   0.79051   0.00000  Uiso   1.00
H662   H     0.58594   0.18890   0.76939   0.00000  Uiso   1.00
H663   H     0.61707   0.21122   0.67552   0.00000  Uiso   1.00
H664   H     0.63701   0.24989   0.69608   0.00000  Uiso   1.00
H665   H     0.57063   0.12282   0.72869   0.00000  Uiso   1.00
H666   H     0.59006   0.10406   0.74931   0.00000  Uiso   1.00
H667   H     0.65194   0.16472   0.73536   0.00000  Uiso   1.00
H668   H     0.63216   0.18323   0.71513   0.00000  Uiso   1.00
H669   H     0.56638   0.15230   0.77073   0.00000  Uiso   1.00
H670   H     0.52860   0.13407   0.79196   0.00000  Uiso   1.00
H671   H     0.50481   0.13411   0.69429   0.00000  Uiso   1.00
H672   H     0.54271   0.15255   0.67368   0.00000  Uiso   1.00
C1009  C     0.88429   0.01388   0.75695   0.00000  Uiso   1.00
C1010  C     0.90497   0.02921   0.74490   0.00000  Uiso   1.00
C1011  C     0.91577   0.05077   0.75665   0.00000  Uiso   1.00
C1012  C     0.90623   0.05749   0.78042   0.00000  Uiso   1.00
C1013  C     0.88580   0.04234   0.79267   0.00000  Uiso   1.00
C1014  C     0.87485   0.02075   0.78111   0.00000  Uiso   1.00
H673   H     0.91284   0.02412   0.72611   0.00000  Uiso   1.00
H674   H     0.93213   0.06274   0.74704   0.00000  Uiso   1.00
H675   H     0.87819   0.04765   0.81167   0.00000  Uiso   1.00
H676   H     0.85851   0.00900   0.79084   0.00000  Uiso   1.00
C1015  C     0.88600   0.08900   0.76269   0.00000  Uiso   1.00
C1016  C     0.90568   0.10102   0.77925   0.00000  Uiso   1.00
C1017  C     0.91446   0.12369   0.78385   0.00000  Uiso   1.00
C1018  C     0.90370   0.13427   0.77230   0.00000  Uiso   1.00
C1019  C     0.88376   0.12221   0.75579   0.00000  Uiso   1.00
C1020  C     0.87505   0.09937   0.75109   0.00000  Uiso   1.00
Si49   Si    0.92023   0.08684   0.79536   0.00000  Uiso   1.00
C1021  C     0.94908   0.10153   0.78054   0.00000  Uiso   1.00
C1022  C     0.96470   0.09817   0.79580   0.00000  Uiso   1.00
C1023  C     0.98588   0.10832   0.78419   0.00000  Uiso   1.00
C1024  C     0.99188   0.12218   0.75686   0.00000  Uiso   1.00
C1025  C     0.97605   0.12554   0.74165   0.00000  Uiso   1.00
C1026  C     0.95492   0.11530   0.75349   0.00000  Uiso   1.00
C1027  C     0.91498   0.10078   0.85866   0.00000  Uiso   1.00
C1028  C     0.91482   0.10058   0.89299   0.00000  Uiso   1.00
C1029  C     0.91933   0.08614   0.90980   0.00000  Uiso   1.00
C1030  C     0.92392   0.07184   0.89245   0.00000  Uiso   1.00
C1031  C     0.92405   0.07203   0.85812   0.00000  Uiso   1.00
C1032  C     0.91967   0.08656   0.84131   0.00000  Uiso   1.00
Si50   Si    0.91913   0.08606   0.95575   0.00000  Uiso   1.00
C1033  C     0.88158   0.01375   0.99548   0.00000  Uiso   1.00
C1034  C     0.89637   0.03133   0.01535   0.00000  Uiso   1.00
C1035  C     0.90742   0.05270   0.00328   0.00000  Uiso   1.00
C1036  C     0.90406   0.05700   0.97136   0.00000  Uiso   1.00
C1037  C     0.88933   0.03966   0.95157   0.00000  Uiso   1.00
C1038  C     0.87816   0.01823   0.96339   0.00000  Uiso   1.00
C1039  C     0.90477   0.10087   0.97034   0.00000  Uiso   1.00
C1040  C     0.91621   0.12351   0.97691   0.00000  Uiso   1.00
C1041  C     0.90542   0.13423   0.98798   0.00000  Uiso   1.00
C1042  C     0.88275   0.12239   0.99262   0.00000  Uiso   1.00
C1043  C     0.87130   0.09960   0.98562   0.00000  Uiso   1.00
C1044  C     0.88228   0.08906   0.97462   0.00000  Uiso   1.00
C1045  C     0.95268   0.11003   0.00233   0.00000  Uiso   1.00
C1046  C     0.97379   0.12020   0.01428   0.00000  Uiso   1.00
C1047  C     0.99055   0.12041   0.99566   0.00000  Uiso   1.00
C1048  C     0.98539   0.11002   0.96491   0.00000  Uiso   1.00
C1049  C     0.96422   0.09994   0.95323   0.00000  Uiso   1.00
C1050  C     0.94773   0.09990   0.97174   0.00000  Uiso   1.00
H677   H     0.87901   0.07097   0.75865   0.00000  Uiso   1.00
H678   H     0.93018   0.13336   0.79694   0.00000  Uiso   1.00
H679   H     0.91085   0.15227   0.77647   0.00000  Uiso   1.00
H680   H     0.85947   0.08954   0.73784   0.00000  Uiso   1.00
H681   H     0.96015   0.08721   0.81734   0.00000  Uiso   1.00
H682   H     0.99801   0.10527   0.79648   0.00000  Uiso   1.00
H683   H     0.98040   0.13655   0.72027   0.00000  Uiso   1.00
H684   H     0.94257   0.11811   0.74130   0.00000  Uiso   1.00
H685   H     0.91128   0.11232   0.84549   0.00000  Uiso   1.00
H686   H     0.91104   0.11200   0.90665   0.00000  Uiso   1.00
H687   H     0.92745   0.06018   0.90569   0.00000  Uiso   1.00
H688   H     0.92764   0.06048   0.84443   0.00000  Uiso   1.00
H689   H     0.89917   0.02824   0.04085   0.00000  Uiso   1.00
H690   H     0.91904   0.06648   0.01918   0.00000  Uiso   1.00
H691   H     0.88656   0.04301   0.92614   0.00000  Uiso   1.00
H692   H     0.86668   0.00462   0.94722   0.00000  Uiso   1.00
H693   H     0.93412   0.13301   0.97340   0.00000  Uiso   1.00
H694   H     0.91485   0.15217   0.99344   0.00000  Uiso   1.00
H695   H     0.85340   0.08993   0.98867   0.00000  Uiso   1.00
H696   H     0.87307   0.07105   0.96919   0.00000  Uiso   1.00
H697   H     0.93961   0.11004   0.01724   0.00000  Uiso   1.00
H698   H     0.97740   0.12836   0.03849   0.00000  Uiso   1.00
H699   H     0.99820   0.10970   0.94986   0.00000  Uiso   1.00
H700   H     0.96040   0.09181   0.92891   0.00000  Uiso   1.00
C1051  C     0.87012   0.24137   0.50785   0.00000  Uiso   1.00
C1052  C     0.84910   0.22616   0.49668   0.00000  Uiso   1.00
C1053  C     0.83832   0.20472   0.50847   0.00000  Uiso   1.00
C1054  C     0.84826   0.19791   0.53126   0.00000  Uiso   1.00
C1055  C     0.86898   0.21300   0.54278   0.00000  Uiso   1.00
C1056  C     0.87990   0.23451   0.53126   0.00000  Uiso   1.00
H701   H     0.84094   0.23129   0.47858   0.00000  Uiso   1.00
H702   H     0.82167   0.19290   0.49961   0.00000  Uiso   1.00
H703   H     0.87687   0.20768   0.56114   0.00000  Uiso   1.00
H704   H     0.89648   0.24619   0.54038   0.00000  Uiso   1.00
C1057  C     0.86875   0.16647   0.51117   0.00000  Uiso   1.00
C1058  C     0.84933   0.15456   0.52832   0.00000  Uiso   1.00
C1059  C     0.84080   0.13199   0.53322   0.00000  Uiso   1.00
C1060  C     0.85163   0.12144   0.52161   0.00000  Uiso   1.00
C1061  C     0.87134   0.13338   0.50455   0.00000  Uiso   1.00
C1062  C     0.87972   0.15611   0.49942   0.00000  Uiso   1.00
Si51   Si    0.83472   0.16850   0.54539   0.00000  Uiso   1.00
C1063  C     0.80582   0.15289   0.53076   0.00000  Uiso   1.00
C1064  C     0.78848   0.14480   0.55260   0.00000  Uiso   1.00
C1065  C     0.76719   0.13415   0.54137   0.00000  Uiso   1.00
C1066  C     0.76278   0.13129   0.50774   0.00000  Uiso   1.00
C1067  C     0.78037   0.13925   0.48588   0.00000  Uiso   1.00
C1068  C     0.80159   0.14983   0.49741   0.00000  Uiso   1.00
C1069  C     0.84293   0.15648   0.60807   0.00000  Uiso   1.00
C1070  C     0.84297   0.15640   0.64239   0.00000  Uiso   1.00
C1071  C     0.83574   0.16860   0.65976   0.00000  Uiso   1.00
C1072  C     0.82856   0.18098   0.64302   0.00000  Uiso   1.00
C1073  C     0.82848   0.18102   0.60868   0.00000  Uiso   1.00
C1074  C     0.83557   0.16868   0.59131   0.00000  Uiso   1.00
Si52   Si    0.83562   0.16849   0.70571   0.00000  Uiso   1.00
C1075  C     0.87281   0.24135   0.74475   0.00000  Uiso   1.00
C1076  C     0.85835   0.22399   0.76496   0.00000  Uiso   1.00
C1077  C     0.84727   0.20246   0.75316   0.00000  Uiso   1.00
C1078  C     0.85028   0.19773   0.72119   0.00000  Uiso   1.00
C1079  C     0.86462   0.21487   0.70105   0.00000  Uiso   1.00
C1080  C     0.87582   0.23647   0.71256   0.00000  Uiso   1.00
C1081  C     0.85024   0.15415   0.72078   0.00000  Uiso   1.00
C1082  C     0.83868   0.13206   0.73021   0.00000  Uiso   1.00
C1083  C     0.84954   0.12156   0.74162   0.00000  Uiso   1.00
C1084  C     0.87237   0.13309   0.74380   0.00000  Uiso   1.00
C1085  C     0.88393   0.15534   0.73415   0.00000  Uiso   1.00
C1086  C     0.87289   0.16566   0.72275   0.00000  Uiso   1.00
C1087  C     0.80267   0.14832   0.75385   0.00000  Uiso   1.00
C1088  C     0.78154   0.13803   0.76569   0.00000  Uiso   1.00
C1089  C     0.76402   0.13287   0.74463   0.00000  Uiso   1.00
C1090  C     0.76834   0.13823   0.71148   0.00000  Uiso   1.00
C1091  C     0.78955   0.14851   0.69995   0.00000  Uiso   1.00
C1092  C     0.80686   0.15377   0.72101   0.00000  Uiso   1.00
H705   H     0.87549   0.18441   0.50682   0.00000  Uiso   1.00
H706   H     0.82526   0.12241   0.54670   0.00000  Uiso   1.00
H707   H     0.84470   0.10354   0.52614   0.00000  Uiso   1.00
H708   H     0.89507   0.16585   0.48571   0.00000  Uiso   1.00
H709   H     0.79173   0.14690   0.57921   0.00000  Uiso   1.00
H710   H     0.75365   0.12777   0.55914   0.00000  Uiso   1.00
H711   H     0.77740   0.13731   0.45926   0.00000  Uiso   1.00
H712   H     0.81535   0.15607   0.47994   0.00000  Uiso   1.00
H713   H     0.84882   0.14676   0.59441   0.00000  Uiso   1.00
H714   H     0.84884   0.14657   0.65560   0.00000  Uiso   1.00
H715   H     0.82288   0.19086   0.65676   0.00000  Uiso   1.00
H716   H     0.82272   0.19093   0.59543   0.00000  Uiso   1.00
H717   H     0.85583   0.22738   0.79052   0.00000  Uiso   1.00
H718   H     0.83595   0.18889   0.76939   0.00000  Uiso   1.00
H719   H     0.86707   0.21122   0.67553   0.00000  Uiso   1.00
H720   H     0.88701   0.24989   0.69608   0.00000  Uiso   1.00
H721   H     0.82063   0.12282   0.72869   0.00000  Uiso   1.00
H722   H     0.84006   0.10406   0.74931   0.00000  Uiso   1.00
H723   H     0.90194   0.16471   0.73537   0.00000  Uiso   1.00
H724   H     0.88216   0.18323   0.71513   0.00000  Uiso   1.00
H725   H     0.81638   0.15229   0.77073   0.00000  Uiso   1.00
H726   H     0.77860   0.13407   0.79196   0.00000  Uiso   1.00
H727   H     0.75481   0.13412   0.69429   0.00000  Uiso   1.00
H728   H     0.79271   0.15255   0.67368   0.00000  Uiso   1.00
C1093  C     0.63428   0.26385   0.75694   0.00000  Uiso   1.00
C1094  C     0.65496   0.27917   0.74488   0.00000  Uiso   1.00
C1095  C     0.66578   0.30072   0.75663   0.00000  Uiso   1.00
C1096  C     0.65625   0.30746   0.78042   0.00000  Uiso   1.00
C1097  C     0.63582   0.29231   0.79268   0.00000  Uiso   1.00
C1098  C     0.62485   0.27072   0.78111   0.00000  Uiso   1.00
H729   H     0.66281   0.27406   0.72608   0.00000  Uiso   1.00
H730   H     0.68213   0.31268   0.74701   0.00000  Uiso   1.00
H731   H     0.62822   0.29763   0.81168   0.00000  Uiso   1.00
H732   H     0.60851   0.25898   0.79085   0.00000  Uiso   1.00
C1099  C     0.63604   0.33896   0.76270   0.00000  Uiso   1.00
C1100  C     0.65572   0.35098   0.77926   0.00000  Uiso   1.00
C1101  C     0.66450   0.37365   0.78388   0.00000  Uiso   1.00
C1102  C     0.65374   0.38423   0.77234   0.00000  Uiso   1.00
C1103  C     0.63380   0.37218   0.75581   0.00000  Uiso   1.00
C1104  C     0.62510   0.34934   0.75111   0.00000  Uiso   1.00
Si53   Si    0.67027   0.33680   0.79536   0.00000  Uiso   1.00
C1105  C     0.69912   0.35149   0.78053   0.00000  Uiso   1.00
C1106  C     0.71475   0.34815   0.79578   0.00000  Uiso   1.00
C1107  C     0.73594   0.35833   0.78418   0.00000  Uiso   1.00
C1108  C     0.74193   0.37219   0.75686   0.00000  Uiso   1.00
C1109  C     0.72608   0.37553   0.74165   0.00000  Uiso   1.00
C1110  C     0.70495   0.36527   0.75348   0.00000  Uiso   1.00
C1111  C     0.66502   0.35073   0.85866   0.00000  Uiso   1.00
C1112  C     0.66486   0.35053   0.89299   0.00000  Uiso   1.00
C1113  C     0.66937   0.33609   0.90979   0.00000  Uiso   1.00
C1114  C     0.67396   0.32179   0.89244   0.00000  Uiso   1.00
C1115  C     0.67409   0.32198   0.85811   0.00000  Uiso   1.00
C1116  C     0.66972   0.33652   0.84131   0.00000  Uiso   1.00
Si54   Si    0.66917   0.33601   0.95575   0.00000  Uiso   1.00
C1117  C     0.63155   0.26370   0.99549   0.00000  Uiso   1.00
C1118  C     0.64635   0.28127   0.01536   0.00000  Uiso   1.00
C1119  C     0.65743   0.30264   0.00328   0.00000  Uiso   1.00
C1120  C     0.65408   0.30695   0.97136   0.00000  Uiso   1.00
C1121  C     0.63935   0.28962   0.95157   0.00000  Uiso   1.00
C1122  C     0.62815   0.26819   0.96339   0.00000  Uiso   1.00
C1123  C     0.65481   0.35082   0.97031   0.00000  Uiso   1.00
C1124  C     0.66626   0.37346   0.97688   0.00000  Uiso   1.00
C1125  C     0.65547   0.38418   0.98794   0.00000  Uiso   1.00
C1126  C     0.63280   0.37235   0.99257   0.00000  Uiso   1.00
C1127  C     0.62134   0.34956   0.98557   0.00000  Uiso   1.00
C1128  C     0.63232   0.33901   0.97458   0.00000  Uiso   1.00
C1129  C     0.70270   0.35999   0.00233   0.00000  Uiso   1.00
C1130  C     0.72382   0.37019   0.01427   0.00000  Uiso   1.00
C1131  C     0.74059   0.37042   0.99566   0.00000  Uiso   1.00
C1132  C     0.73544   0.36002   0.96492   0.00000  Uiso   1.00
C1133  C     0.71427   0.34991   0.95323   0.00000  Uiso   1.00
C1134  C     0.69777   0.34986   0.97174   0.00000  Uiso   1.00
H733   H     0.62905   0.32094   0.75866   0.00000  Uiso   1.00
H734   H     0.68022   0.38332   0.79697   0.00000  Uiso   1.00
H735   H     0.66089   0.40223   0.77651   0.00000  Uiso   1.00
H736   H     0.60952   0.33951   0.73786   0.00000  Uiso   1.00
H737   H     0.71021   0.33719   0.81731   0.00000  Uiso   1.00
H738   H     0.74807   0.35529   0.79647   0.00000  Uiso   1.00
H739   H     0.73042   0.38655   0.72027   0.00000  Uiso   1.00
H740   H     0.69259   0.36806   0.74129   0.00000  Uiso   1.00
H741   H     0.66131   0.36227   0.84549   0.00000  Uiso   1.00
H742   H     0.66107   0.36194   0.90666   0.00000  Uiso   1.00
H743   H     0.67749   0.31013   0.90568   0.00000  Uiso   1.00
H744   H     0.67768   0.31043   0.84442   0.00000  Uiso   1.00
H745   H     0.64914   0.27818   0.04085   0.00000  Uiso   1.00
H746   H     0.66906   0.31641   0.01919   0.00000  Uiso   1.00
H747   H     0.63659   0.29297   0.92613   0.00000  Uiso   1.00
H748   H     0.61666   0.25458   0.94721   0.00000  Uiso   1.00
H749   H     0.68417   0.38296   0.97337   0.00000  Uiso   1.00
H750   H     0.66490   0.40213   0.99341   0.00000  Uiso   1.00
H751   H     0.60345   0.33989   0.98861   0.00000  Uiso   1.00
H752   H     0.62311   0.32101   0.96914   0.00000  Uiso   1.00
H753   H     0.68962   0.35997   0.01723   0.00000  Uiso   1.00
H754   H     0.72741   0.37836   0.03849   0.00000  Uiso   1.00
H755   H     0.74826   0.35973   0.94987   0.00000  Uiso   1.00
H756   H     0.71046   0.34178   0.92892   0.00000  Uiso   1.00
C1135  C     0.62018   0.49129   0.50796   0.00000  Uiso   1.00
C1136  C     0.59915   0.47611   0.49681   0.00000  Uiso   1.00
C1137  C     0.58835   0.45466   0.50859   0.00000  Uiso   1.00
C1138  C     0.59829   0.44784   0.53135   0.00000  Uiso   1.00
C1139  C     0.61902   0.46290   0.54287   0.00000  Uiso   1.00
C1140  C     0.62995   0.48442   0.53135   0.00000  Uiso   1.00
H757   H     0.59099   0.48125   0.47874   0.00000  Uiso   1.00
H758   H     0.57169   0.44286   0.49976   0.00000  Uiso   1.00
H759   H     0.62691   0.45757   0.56121   0.00000  Uiso   1.00
H760   H     0.64654   0.49608   0.54046   0.00000  Uiso   1.00
C1141  C     0.61879   0.41642   0.51115   0.00000  Uiso   1.00
C1142  C     0.59938   0.40450   0.52832   0.00000  Uiso   1.00
C1143  C     0.59086   0.38192   0.53322   0.00000  Uiso   1.00
C1144  C     0.60168   0.37138   0.52159   0.00000  Uiso   1.00
C1145  C     0.62139   0.38333   0.50452   0.00000  Uiso   1.00
C1146  C     0.62976   0.40606   0.49938   0.00000  Uiso   1.00
Si55   Si    0.58476   0.41842   0.54542   0.00000  Uiso   1.00
C1147  C     0.55586   0.40283   0.53077   0.00000  Uiso   1.00
C1148  C     0.53853   0.39472   0.55263   0.00000  Uiso   1.00
C1149  C     0.51724   0.38404   0.54139   0.00000  Uiso   1.00
C1150  C     0.51283   0.38118   0.50776   0.00000  Uiso   1.00
C1151  C     0.53042   0.38917   0.48590   0.00000  Uiso   1.00
C1152  C     0.55163   0.39977   0.49742   0.00000  Uiso   1.00
C1153  C     0.59297   0.40640   0.60810   0.00000  Uiso   1.00
C1154  C     0.59302   0.40632   0.64242   0.00000  Uiso   1.00
C1155  C     0.58578   0.41853   0.65978   0.00000  Uiso   1.00
C1156  C     0.57860   0.43090   0.64302   0.00000  Uiso   1.00
C1157  C     0.57852   0.43094   0.60869   0.00000  Uiso   1.00
C1158  C     0.58561   0.41859   0.59134   0.00000  Uiso   1.00
Si56   Si    0.58566   0.41844   0.70571   0.00000  Uiso   1.00
C1159  C     0.62288   0.49131   0.74472   0.00000  Uiso   1.00
C1160  C     0.60842   0.47396   0.76493   0.00000  Uiso   1.00
C1161  C     0.59732   0.45242   0.75314   0.00000  Uiso   1.00
C1162  C     0.60031   0.44769   0.72116   0.00000  Uiso   1.00
C1163  C     0.61465   0.46482   0.70100   0.00000  Uiso   1.00
C1164  C     0.62587   0.48642   0.71252   0.00000  Uiso   1.00
C1165  C     0.60029   0.40412   0.72081   0.00000  Uiso   1.00
C1166  C     0.58872   0.38203   0.73024   0.00000  Uiso   1.00
C1167  C     0.59958   0.37153   0.74166   0.00000  Uiso   1.00
C1168  C     0.62241   0.38305   0.74383   0.00000  Uiso   1.00
C1169  C     0.63397   0.40530   0.73418   0.00000  Uiso   1.00
C1170  C     0.62293   0.41563   0.72278   0.00000  Uiso   1.00
C1171  C     0.55273   0.39829   0.75388   0.00000  Uiso   1.00
C1172  C     0.53160   0.38797   0.76573   0.00000  Uiso   1.00
C1173  C     0.51407   0.38280   0.74468   0.00000  Uiso   1.00
C1174  C     0.51839   0.38817   0.71153   0.00000  Uiso   1.00
C1175  C     0.53959   0.39847   0.69998   0.00000  Uiso   1.00
C1176  C     0.55691   0.40373   0.72104   0.00000  Uiso   1.00
H761   H     0.62553   0.43435   0.50682   0.00000  Uiso   1.00
H762   H     0.57532   0.37234   0.54670   0.00000  Uiso   1.00
H763   H     0.59477   0.35348   0.52612   0.00000  Uiso   1.00
H764   H     0.64511   0.41581   0.48568   0.00000  Uiso   1.00
H765   H     0.54179   0.39683   0.57923   0.00000  Uiso   1.00
H766   H     0.50370   0.37764   0.55917   0.00000  Uiso   1.00
H767   H     0.52744   0.38723   0.45928   0.00000  Uiso   1.00
H768   H     0.56540   0.40604   0.47995   0.00000  Uiso   1.00
H769   H     0.59886   0.39667   0.59445   0.00000  Uiso   1.00
H770   H     0.59889   0.39650   0.65564   0.00000  Uiso   1.00
H771   H     0.57292   0.44079   0.65676   0.00000  Uiso   1.00
H772   H     0.57276   0.44085   0.59542   0.00000  Uiso   1.00
H773   H     0.60591   0.47735   0.79049   0.00000  Uiso   1.00
H774   H     0.58598   0.43887   0.76937   0.00000  Uiso   1.00
H775   H     0.61708   0.46117   0.67548   0.00000  Uiso   1.00
H776   H     0.63706   0.49984   0.69604   0.00000  Uiso   1.00
H777   H     0.57067   0.37279   0.72872   0.00000  Uiso   1.00
H778   H     0.59010   0.35403   0.74934   0.00000  Uiso   1.00
H779   H     0.65198   0.41468   0.73539   0.00000  Uiso   1.00
H780   H     0.63221   0.43320   0.71516   0.00000  Uiso   1.00
H781   H     0.56644   0.40227   0.77074   0.00000  Uiso   1.00
H782   H     0.52867   0.38401   0.79199   0.00000  Uiso   1.00
H783   H     0.50484   0.38405   0.69435   0.00000  Uiso   1.00
H784   H     0.54274   0.40251   0.67372   0.00000  Uiso   1.00
C1177  C     0.88426   0.26384   0.75695   0.00000  Uiso   1.00
C1178  C     0.90494   0.27918   0.74489   0.00000  Uiso   1.00
C1179  C     0.91573   0.30073   0.75665   0.00000  Uiso   1.00
C1180  C     0.90619   0.30745   0.78042   0.00000  Uiso   1.00
C1181  C     0.88576   0.29230   0.79267   0.00000  Uiso   1.00
C1182  C     0.87481   0.27071   0.78111   0.00000  Uiso   1.00
H785   H     0.91280   0.27408   0.72611   0.00000  Uiso   1.00
H786   H     0.93209   0.31270   0.74703   0.00000  Uiso   1.00
H787   H     0.87815   0.29761   0.81167   0.00000  Uiso   1.00
H788   H     0.85847   0.25895   0.79084   0.00000  Uiso   1.00
C1183  C     0.88597   0.33898   0.76268   0.00000  Uiso   1.00
C1184  C     0.90565   0.35099   0.77925   0.00000  Uiso   1.00
C1185  C     0.91443   0.37366   0.78386   0.00000  Uiso   1.00
C1186  C     0.90369   0.38425   0.77230   0.00000  Uiso   1.00
C1187  C     0.88375   0.37220   0.75578   0.00000  Uiso   1.00
C1188  C     0.87503   0.34936   0.75109   0.00000  Uiso   1.00
Si57   Si    0.92018   0.33680   0.79537   0.00000  Uiso   1.00
C1189  C     0.94903   0.35148   0.78055   0.00000  Uiso   1.00
C1190  C     0.96466   0.34813   0.79580   0.00000  Uiso   1.00
C1191  C     0.98584   0.35829   0.78419   0.00000  Uiso   1.00
C1192  C     0.99184   0.37216   0.75687   0.00000  Uiso   1.00
C1193  C     0.97599   0.37551   0.74166   0.00000  Uiso   1.00
C1194  C     0.95487   0.36526   0.75350   0.00000  Uiso   1.00
C1195  C     0.91495   0.35074   0.85866   0.00000  Uiso   1.00
C1196  C     0.91479   0.35054   0.89299   0.00000  Uiso   1.00
C1197  C     0.91929   0.33610   0.90980   0.00000  Uiso   1.00
C1198  C     0.92388   0.32180   0.89246   0.00000  Uiso   1.00
C1199  C     0.92401   0.32198   0.85813   0.00000  Uiso   1.00
C1200  C     0.91964   0.33652   0.84131   0.00000  Uiso   1.00
Si58   Si    0.91909   0.33602   0.95575   0.00000  Uiso   1.00
C1201  C     0.88154   0.26370   0.99548   0.00000  Uiso   1.00
C1202  C     0.89633   0.28128   0.01535   0.00000  Uiso   1.00
C1203  C     0.90739   0.30264   0.00327   0.00000  Uiso   1.00
C1204  C     0.90402   0.30696   0.97136   0.00000  Uiso   1.00
C1205  C     0.88930   0.28962   0.95157   0.00000  Uiso   1.00
C1206  C     0.87812   0.26818   0.96338   0.00000  Uiso   1.00
C1207  C     0.90473   0.35083   0.97034   0.00000  Uiso   1.00
C1208  C     0.91619   0.37347   0.97690   0.00000  Uiso   1.00
C1209  C     0.90541   0.38420   0.98796   0.00000  Uiso   1.00
C1210  C     0.88274   0.37238   0.99261   0.00000  Uiso   1.00
C1211  C     0.87128   0.34958   0.98562   0.00000  Uiso   1.00
C1212  C     0.88224   0.33903   0.97463   0.00000  Uiso   1.00
C1213  C     0.95263   0.35999   0.00233   0.00000  Uiso   1.00
C1214  C     0.97374   0.37017   0.01427   0.00000  Uiso   1.00
C1215  C     0.99050   0.37039   0.99566   0.00000  Uiso   1.00
C1216  C     0.98535   0.35999   0.96492   0.00000  Uiso   1.00
C1217  C     0.96418   0.34990   0.95323   0.00000  Uiso   1.00
C1218  C     0.94769   0.34986   0.97174   0.00000  Uiso   1.00
H789   H     0.87897   0.32095   0.75864   0.00000  Uiso   1.00
H790   H     0.93016   0.38333   0.79695   0.00000  Uiso   1.00
H791   H     0.91084   0.40225   0.77647   0.00000  Uiso   1.00
H792   H     0.85946   0.33953   0.73783   0.00000  Uiso   1.00
H793   H     0.96011   0.33717   0.81733   0.00000  Uiso   1.00
H794   H     0.99797   0.35525   0.79648   0.00000  Uiso   1.00
H795   H     0.98035   0.38653   0.72028   0.00000  Uiso   1.00
H796   H     0.94251   0.36806   0.74132   0.00000  Uiso   1.00
H797   H     0.91125   0.36229   0.84549   0.00000  Uiso   1.00
H798   H     0.91101   0.36196   0.90666   0.00000  Uiso   1.00
H799   H     0.92740   0.31014   0.90570   0.00000  Uiso   1.00
H800   H     0.92760   0.31043   0.84443   0.00000  Uiso   1.00
H801   H     0.89913   0.27818   0.04084   0.00000  Uiso   1.00
H802   H     0.91901   0.31643   0.01918   0.00000  Uiso   1.00
H803   H     0.88653   0.29296   0.92613   0.00000  Uiso   1.00
H804   H     0.86664   0.25457   0.94721   0.00000  Uiso   1.00
H805   H     0.93410   0.38297   0.97338   0.00000  Uiso   1.00
H806   H     0.91484   0.40215   0.99342   0.00000  Uiso   1.00
H807   H     0.85338   0.33992   0.98867   0.00000  Uiso   1.00
H808   H     0.87303   0.32103   0.96920   0.00000  Uiso   1.00
H809   H     0.93955   0.35998   0.01723   0.00000  Uiso   1.00
H810   H     0.97734   0.37834   0.03849   0.00000  Uiso   1.00
H811   H     0.99817   0.35968   0.94987   0.00000  Uiso   1.00
H812   H     0.96036   0.34177   0.92892   0.00000  Uiso   1.00
C1219  C     0.87012   0.49137   0.50786   0.00000  Uiso   1.00
C1220  C     0.84910   0.47616   0.49668   0.00000  Uiso   1.00
C1221  C     0.83832   0.45472   0.50847   0.00000  Uiso   1.00
C1222  C     0.84826   0.44791   0.53127   0.00000  Uiso   1.00
C1223  C     0.86898   0.46300   0.54278   0.00000  Uiso   1.00
C1224  C     0.87990   0.48451   0.53126   0.00000  Uiso   1.00
H813   H     0.84094   0.48129   0.47858   0.00000  Uiso   1.00
H814   H     0.82167   0.44290   0.49962   0.00000  Uiso   1.00
H815   H     0.87687   0.45768   0.56115   0.00000  Uiso   1.00
H816   H     0.89648   0.49619   0.54039   0.00000  Uiso   1.00
C1225  C     0.86875   0.41647   0.51117   0.00000  Uiso   1.00
C1226  C     0.84933   0.40456   0.52832   0.00000  Uiso   1.00
C1227  C     0.84080   0.38199   0.53323   0.00000  Uiso   1.00
C1228  C     0.85162   0.37143   0.52161   0.00000  Uiso   1.00
C1229  C     0.87134   0.38337   0.50455   0.00000  Uiso   1.00
C1230  C     0.87972   0.40610   0.49942   0.00000  Uiso   1.00
Si59   Si    0.83472   0.41850   0.54539   0.00000  Uiso   1.00
C1231  C     0.80582   0.40290   0.53076   0.00000  Uiso   1.00
C1232  C     0.78849   0.39480   0.55260   0.00000  Uiso   1.00
C1233  C     0.76719   0.38415   0.54136   0.00000  Uiso   1.00
C1234  C     0.76279   0.38129   0.50773   0.00000  Uiso   1.00
C1235  C     0.78038   0.38926   0.48588   0.00000  Uiso   1.00
C1236  C     0.80159   0.39983   0.49741   0.00000  Uiso   1.00
C1237  C     0.84293   0.40648   0.60807   0.00000  Uiso   1.00
C1238  C     0.84297   0.40640   0.64239   0.00000  Uiso   1.00
C1239  C     0.83574   0.41860   0.65977   0.00000  Uiso   1.00
C1240  C     0.82856   0.43098   0.64302   0.00000  Uiso   1.00
C1241  C     0.82848   0.43102   0.60868   0.00000  Uiso   1.00
C1242  C     0.83557   0.41868   0.59132   0.00000  Uiso   1.00
Si60   Si    0.83562   0.41849   0.70571   0.00000  Uiso   1.00
C1243  C     0.87281   0.49135   0.74475   0.00000  Uiso   1.00
C1244  C     0.85835   0.47399   0.76496   0.00000  Uiso   1.00
C1245  C     0.84727   0.45246   0.75316   0.00000  Uiso   1.00
C1246  C     0.85028   0.44773   0.72119   0.00000  Uiso   1.00
C1247  C     0.86462   0.46487   0.70104   0.00000  Uiso   1.00
C1248  C     0.87582   0.48647   0.71256   0.00000  Uiso   1.00
C1249  C     0.85024   0.40415   0.72078   0.00000  Uiso   1.00
C1250  C     0.83867   0.38206   0.73021   0.00000  Uiso   1.00
C1251  C     0.84953   0.37156   0.74162   0.00000  Uiso   1.00
C1252  C     0.87236   0.38308   0.74380   0.00000  Uiso   1.00
C1253  C     0.88392   0.40533   0.73415   0.00000  Uiso   1.00
C1254  C     0.87289   0.41566   0.72275   0.00000  Uiso   1.00
C1255  C     0.80267   0.39833   0.75386   0.00000  Uiso   1.00
C1256  C     0.78155   0.38803   0.76570   0.00000  Uiso   1.00
C1257  C     0.76402   0.38287   0.74464   0.00000  Uiso   1.00
C1258  C     0.76834   0.38823   0.71149   0.00000  Uiso   1.00
C1259  C     0.78955   0.39851   0.69995   0.00000  Uiso   1.00
C1260  C     0.80686   0.40377   0.72102   0.00000  Uiso   1.00
H817   H     0.87550   0.43440   0.50682   0.00000  Uiso   1.00
H818   H     0.82526   0.37241   0.54670   0.00000  Uiso   1.00
H819   H     0.84470   0.35354   0.52615   0.00000  Uiso   1.00
H820   H     0.89507   0.41584   0.48571   0.00000  Uiso   1.00
H821   H     0.79174   0.39690   0.57921   0.00000  Uiso   1.00
H822   H     0.75365   0.37777   0.55913   0.00000  Uiso   1.00
H823   H     0.77740   0.38731   0.45926   0.00000  Uiso   1.00
H824   H     0.81536   0.40608   0.47994   0.00000  Uiso   1.00
H825   H     0.84882   0.39676   0.59441   0.00000  Uiso   1.00
H826   H     0.84884   0.39657   0.65560   0.00000  Uiso   1.00
H827   H     0.82288   0.44086   0.65676   0.00000  Uiso   1.00
H828   H     0.82272   0.44093   0.59543   0.00000  Uiso   1.00
H829   H     0.85583   0.47739   0.79052   0.00000  Uiso   1.00
H830   H     0.83594   0.43890   0.76939   0.00000  Uiso   1.00
H831   H     0.86707   0.46122   0.67552   0.00000  Uiso   1.00
H832   H     0.88701   0.49989   0.69608   0.00000  Uiso   1.00
H833   H     0.82063   0.37283   0.72869   0.00000  Uiso   1.00
H834   H     0.84005   0.35406   0.74931   0.00000  Uiso   1.00
H835   H     0.90194   0.41471   0.73537   0.00000  Uiso   1.00
H836   H     0.88216   0.43323   0.71514   0.00000  Uiso   1.00
H837   H     0.81638   0.40230   0.77073   0.00000  Uiso   1.00
H838   H     0.77860   0.38407   0.79196   0.00000  Uiso   1.00
H839   H     0.75480   0.38411   0.69430   0.00000  Uiso   1.00
H840   H     0.79271   0.40255   0.67369   0.00000  Uiso   1.00
C1261  C     0.13403   0.51376   0.25702   0.00000  Uiso   1.00
C1262  C     0.15470   0.52913   0.24497   0.00000  Uiso   1.00
C1263  C     0.16546   0.55069   0.25667   0.00000  Uiso   1.00
C1264  C     0.15586   0.55740   0.28047   0.00000  Uiso   1.00
C1265  C     0.13541   0.54217   0.29271   0.00000  Uiso   1.00
C1266  C     0.12453   0.52059   0.28116   0.00000  Uiso   1.00
H841   H     0.16260   0.52405   0.22620   0.00000  Uiso   1.00
H842   H     0.18180   0.56269   0.24706   0.00000  Uiso   1.00
H843   H     0.12775   0.54746   0.31168   0.00000  Uiso   1.00
H844   H     0.10819   0.50881   0.29087   0.00000  Uiso   1.00
C1267  C     0.13562   0.58881   0.26270   0.00000  Uiso   1.00
C1268  C     0.15532   0.60080   0.27934   0.00000  Uiso   1.00
C1269  C     0.16414   0.62351   0.28396   0.00000  Uiso   1.00
C1270  C     0.15342   0.63411   0.27239   0.00000  Uiso   1.00
C1271  C     0.13348   0.62208   0.25582   0.00000  Uiso   1.00
C1272  C     0.12473   0.59923   0.25111   0.00000  Uiso   1.00
Si61   Si    0.16975   0.58661   0.29544   0.00000  Uiso   1.00
C1273  C     0.19959   0.60184   0.28017   0.00000  Uiso   1.00
C1274  C     0.21468   0.59783   0.29557   0.00000  Uiso   1.00
C1275  C     0.23704   0.60843   0.28390   0.00000  Uiso   1.00
C1276  C     0.24117   0.62220   0.25750   0.00000  Uiso   1.00
C1277  C     0.22710   0.62708   0.24105   0.00000  Uiso   1.00
C1278  C     0.20497   0.61592   0.25368   0.00000  Uiso   1.00
C1279  C     0.16449   0.60055   0.35864   0.00000  Uiso   1.00
C1280  C     0.16441   0.60040   0.39295   0.00000  Uiso   1.00
C1281  C     0.16899   0.58600   0.40976   0.00000  Uiso   1.00
C1282  C     0.17355   0.57167   0.39240   0.00000  Uiso   1.00
C1283  C     0.17361   0.57180   0.35809   0.00000  Uiso   1.00
C1284  C     0.16919   0.58632   0.34124   0.00000  Uiso   1.00
Si62   Si    0.16894   0.58603   0.45568   0.00000  Uiso   1.00
C1285  C     0.13145   0.51373   0.49549   0.00000  Uiso   1.00
C1286  C     0.14626   0.53131   0.51533   0.00000  Uiso   1.00
C1287  C     0.15730   0.55268   0.50325   0.00000  Uiso   1.00
C1288  C     0.15391   0.55699   0.47134   0.00000  Uiso   1.00
C1289  C     0.13917   0.53964   0.45158   0.00000  Uiso   1.00
C1290  C     0.12801   0.51821   0.46340   0.00000  Uiso   1.00
C1291  C     0.15455   0.60081   0.47025   0.00000  Uiso   1.00
C1292  C     0.16599   0.62346   0.47675   0.00000  Uiso   1.00
C1293  C     0.15521   0.63418   0.48784   0.00000  Uiso   1.00
C1294  C     0.13254   0.62234   0.49257   0.00000  Uiso   1.00
C1295  C     0.12109   0.59953   0.48563   0.00000  Uiso   1.00
C1296  C     0.13207   0.58899   0.47461   0.00000  Uiso   1.00
C1297  C     0.20239   0.61017   0.50224   0.00000  Uiso   1.00
C1298  C     0.22379   0.62027   0.51496   0.00000  Uiso   1.00
C1299  C     0.24053   0.61997   0.49651   0.00000  Uiso   1.00
C1300  C     0.23557   0.60958   0.46547   0.00000  Uiso   1.00
C1301  C     0.21404   0.59972   0.45332   0.00000  Uiso   1.00
C1302  C     0.19767   0.60002   0.47168   0.00000  Uiso   1.00
H845   H     0.12860   0.57078   0.25864   0.00000  Uiso   1.00
H846   H     0.17985   0.63316   0.29709   0.00000  Uiso   1.00
H847   H     0.16059   0.65212   0.27655   0.00000  Uiso   1.00
H848   H     0.10916   0.58943   0.23782   0.00000  Uiso   1.00
H849   H     0.20972   0.58653   0.31664   0.00000  Uiso   1.00
H850   H     0.24972   0.60571   0.29526   0.00000  Uiso   1.00
H851   H     0.23227   0.63855   0.21997   0.00000  Uiso   1.00
H852   H     0.19243   0.61863   0.24211   0.00000  Uiso   1.00
H853   H     0.16073   0.61206   0.34549   0.00000  Uiso   1.00
H854   H     0.16063   0.61181   0.40663   0.00000  Uiso   1.00
H855   H     0.17712   0.56004   0.40564   0.00000  Uiso   1.00
H856   H     0.17717   0.56023   0.34441   0.00000  Uiso   1.00
H857   H     0.14909   0.52823   0.54081   0.00000  Uiso   1.00
H858   H     0.16894   0.56646   0.51913   0.00000  Uiso   1.00
H859   H     0.13638   0.54298   0.42615   0.00000  Uiso   1.00
H860   H     0.11652   0.50459   0.44724   0.00000  Uiso   1.00
H861   H     0.18390   0.63298   0.47317   0.00000  Uiso   1.00
H862   H     0.16464   0.65213   0.49327   0.00000  Uiso   1.00
H863   H     0.10320   0.58986   0.48873   0.00000  Uiso   1.00
H864   H     0.12287   0.57098   0.46922   0.00000  Uiso   1.00
H865   H     0.18926   0.61033   0.51672   0.00000  Uiso   1.00
H866   H     0.22744   0.62837   0.53927   0.00000  Uiso   1.00
H867   H     0.24850   0.60920   0.45076   0.00000  Uiso   1.00
H868   H     0.21017   0.59163   0.42900   0.00000  Uiso   1.00
C1303  C     0.12011   0.74143   0.00784   0.00000  Uiso   1.00
C1304  C     0.09909   0.72624   0.99667   0.00000  Uiso   1.00
C1305  C     0.08829   0.70480   0.00846   0.00000  Uiso   1.00
C1306  C     0.09821   0.69798   0.03127   0.00000  Uiso   1.00
C1307  C     0.11894   0.71306   0.04279   0.00000  Uiso   1.00
C1308  C     0.12987   0.73457   0.03126   0.00000  Uiso   1.00
H869   H     0.09094   0.73137   0.97856   0.00000  Uiso   1.00
H870   H     0.07163   0.69299   0.99961   0.00000  Uiso   1.00
H871   H     0.12682   0.70774   0.06116   0.00000  Uiso   1.00
H872   H     0.14645   0.74624   0.04038   0.00000  Uiso   1.00
C1309  C     0.11863   0.66646   0.01120   0.00000  Uiso   1.00
C1310  C     0.09923   0.65459   0.02840   0.00000  Uiso   1.00
C1311  C     0.09066   0.63201   0.03332   0.00000  Uiso   1.00
C1312  C     0.10142   0.62141   0.02164   0.00000  Uiso   1.00
C1313  C     0.12110   0.63331   0.00452   0.00000  Uiso   1.00
C1314  C     0.12953   0.65604   0.99938   0.00000  Uiso   1.00
Si63   Si    0.08465   0.66858   0.04542   0.00000  Uiso   1.00
C1315  C     0.05575   0.65297   0.03077   0.00000  Uiso   1.00
C1316  C     0.03842   0.64485   0.05261   0.00000  Uiso   1.00
C1317  C     0.01713   0.63416   0.04137   0.00000  Uiso   1.00
C1318  C     0.01273   0.63130   0.00773   0.00000  Uiso   1.00
C1319  C     0.03032   0.63928   0.98588   0.00000  Uiso   1.00
C1320  C     0.05154   0.64990   0.99742   0.00000  Uiso   1.00
C1321  C     0.09286   0.65659   0.10809   0.00000  Uiso   1.00
C1322  C     0.09291   0.65650   0.14241   0.00000  Uiso   1.00
C1323  C     0.08567   0.66870   0.15978   0.00000  Uiso   1.00
C1324  C     0.07848   0.68107   0.14304   0.00000  Uiso   1.00
C1325  C     0.07840   0.68112   0.10871   0.00000  Uiso   1.00
C1326  C     0.08549   0.66878   0.09134   0.00000  Uiso   1.00
Si64   Si    0.08556   0.66856   0.20572   0.00000  Uiso   1.00
C1327  C     0.12281   0.74142   0.24478   0.00000  Uiso   1.00
C1328  C     0.10835   0.72406   0.26500   0.00000  Uiso   1.00
C1329  C     0.09726   0.70253   0.25320   0.00000  Uiso   1.00
C1330  C     0.10025   0.69780   0.22122   0.00000  Uiso   1.00
C1331  C     0.11459   0.71493   0.20107   0.00000  Uiso   1.00
C1332  C     0.12582   0.73653   0.21259   0.00000  Uiso   1.00
C1333  C     0.10013   0.65416   0.22074   0.00000  Uiso   1.00
C1334  C     0.08851   0.63207   0.23015   0.00000  Uiso   1.00
C1335  C     0.09932   0.62152   0.24159   0.00000  Uiso   1.00
C1336  C     0.12215   0.63300   0.24380   0.00000  Uiso   1.00
C1337  C     0.13376   0.65525   0.23416   0.00000  Uiso   1.00
C1338  C     0.12277   0.66562   0.22273   0.00000  Uiso   1.00
C1339  C     0.05262   0.64840   0.25388   0.00000  Uiso   1.00
C1340  C     0.03149   0.63806   0.26572   0.00000  Uiso   1.00
C1341  C     0.01396   0.63288   0.24465   0.00000  Uiso   1.00
C1342  C     0.01828   0.63824   0.21150   0.00000  Uiso   1.00
C1343  C     0.03948   0.64856   0.19997   0.00000  Uiso   1.00
C1344  C     0.05681   0.65385   0.22104   0.00000  Uiso   1.00
H873   H     0.12541   0.68440   0.00686   0.00000  Uiso   1.00
H874   H     0.07514   0.62247   0.04684   0.00000  Uiso   1.00
H875   H     0.09446   0.60351   0.02617   0.00000  Uiso   1.00
H876   H     0.14487   0.66575   0.98563   0.00000  Uiso   1.00
H877   H     0.04166   0.64695   0.07922   0.00000  Uiso   1.00
H878   H     0.00358   0.62776   0.05913   0.00000  Uiso   1.00
H879   H     0.02735   0.63733   0.95926   0.00000  Uiso   1.00
H880   H     0.06530   0.65616   0.97996   0.00000  Uiso   1.00
H881   H     0.09876   0.64687   0.09442   0.00000  Uiso   1.00
H882   H     0.09878   0.64668   0.15561   0.00000  Uiso   1.00
H883   H     0.07280   0.69096   0.15678   0.00000  Uiso   1.00
H884   H     0.07264   0.69103   0.09546   0.00000  Uiso   1.00
H885   H     0.10585   0.72746   0.29056   0.00000  Uiso   1.00
H886   H     0.08592   0.68897   0.26942   0.00000  Uiso   1.00
H887   H     0.11703   0.71128   0.17554   0.00000  Uiso   1.00
H888   H     0.13701   0.74995   0.19611   0.00000  Uiso   1.00
H889   H     0.07047   0.62287   0.22860   0.00000  Uiso   1.00
H890   H     0.08980   0.60402   0.24927   0.00000  Uiso   1.00
H891   H     0.15177   0.66458   0.23539   0.00000  Uiso   1.00
H892   H     0.13209   0.68319   0.21511   0.00000  Uiso   1.00
H893   H     0.06633   0.65239   0.27075   0.00000  Uiso   1.00
H894   H     0.02855   0.63410   0.29198   0.00000  Uiso   1.00
H895   H     0.00473   0.63410   0.19431   0.00000  Uiso   1.00
H896   H     0.04264   0.65260   0.17370   0.00000  Uiso   1.00
C1345  C     0.13428   0.76390   0.25698   0.00000  Uiso   1.00
C1346  C     0.15496   0.77922   0.24493   0.00000  Uiso   1.00
C1347  C     0.16577   0.80077   0.25668   0.00000  Uiso   1.00
C1348  C     0.15623   0.80751   0.28046   0.00000  Uiso   1.00
C1349  C     0.13580   0.79236   0.29272   0.00000  Uiso   1.00
C1350  C     0.12484   0.77077   0.28115   0.00000  Uiso   1.00
H897   H     0.16282   0.77412   0.22614   0.00000  Uiso   1.00
H898   H     0.18213   0.81274   0.24707   0.00000  Uiso   1.00
H899   H     0.12819   0.79767   0.31172   0.00000  Uiso   1.00
H900   H     0.10850   0.75902   0.29087   0.00000  Uiso   1.00
C1351  C     0.13599   0.83900   0.26269   0.00000  Uiso   1.00
C1352  C     0.15568   0.85103   0.27926   0.00000  Uiso   1.00
C1353  C     0.16445   0.87370   0.28386   0.00000  Uiso   1.00
C1354  C     0.15370   0.88427   0.27231   0.00000  Uiso   1.00
C1355  C     0.13376   0.87222   0.25579   0.00000  Uiso   1.00
C1356  C     0.12505   0.84937   0.25110   0.00000  Uiso   1.00
Si65   Si    0.17022   0.83685   0.29538   0.00000  Uiso   1.00
C1357  C     0.19907   0.85153   0.28055   0.00000  Uiso   1.00
C1358  C     0.21470   0.84817   0.29580   0.00000  Uiso   1.00
C1359  C     0.23588   0.85833   0.28419   0.00000  Uiso   1.00
C1360  C     0.24187   0.87219   0.25686   0.00000  Uiso   1.00
C1361  C     0.22603   0.87554   0.24166   0.00000  Uiso   1.00
C1362  C     0.20490   0.86530   0.25350   0.00000  Uiso   1.00
C1363  C     0.16497   0.85079   0.35867   0.00000  Uiso   1.00
C1364  C     0.16482   0.85059   0.39300   0.00000  Uiso   1.00
C1365  C     0.16933   0.83615   0.40981   0.00000  Uiso   1.00
C1366  C     0.17392   0.82185   0.39246   0.00000  Uiso   1.00
C1367  C     0.17405   0.82204   0.35813   0.00000  Uiso   1.00
C1368  C     0.16967   0.83657   0.34133   0.00000  Uiso   1.00
Si66   Si    0.16913   0.83606   0.45576   0.00000  Uiso   1.00
C1369  C     0.13155   0.76375   0.49547   0.00000  Uiso   1.00
C1370  C     0.14635   0.78132   0.51534   0.00000  Uiso   1.00
C1371  C     0.15742   0.80269   0.50327   0.00000  Uiso   1.00
C1372  C     0.15406   0.80700   0.47135   0.00000  Uiso   1.00
C1373  C     0.13934   0.78967   0.45155   0.00000  Uiso   1.00
C1374  C     0.12815   0.76824   0.46336   0.00000  Uiso   1.00
C1375  C     0.15477   0.85087   0.47035   0.00000  Uiso   1.00
C1376  C     0.16621   0.87351   0.47692   0.00000  Uiso   1.00
C1377  C     0.15542   0.88423   0.48798   0.00000  Uiso   1.00
C1378  C     0.13275   0.87239   0.49262   0.00000  Uiso   1.00
C1379  C     0.12130   0.84960   0.48563   0.00000  Uiso   1.00
C1380  C     0.13227   0.83906   0.47464   0.00000  Uiso   1.00
C1381  C     0.20267   0.86002   0.50234   0.00000  Uiso   1.00
C1382  C     0.22378   0.87020   0.51428   0.00000  Uiso   1.00
C1383  C     0.24054   0.87042   0.49567   0.00000  Uiso   1.00
C1384  C     0.23539   0.86002   0.46492   0.00000  Uiso   1.00
C1385  C     0.21422   0.84993   0.45324   0.00000  Uiso   1.00
C1386  C     0.19773   0.84990   0.47175   0.00000  Uiso   1.00
H901   H     0.12901   0.82098   0.25866   0.00000  Uiso   1.00
H902   H     0.18017   0.88337   0.29695   0.00000  Uiso   1.00
H903   H     0.16084   0.90228   0.27647   0.00000  Uiso   1.00
H904   H     0.10947   0.83954   0.23784   0.00000  Uiso   1.00
H905   H     0.21015   0.83720   0.31733   0.00000  Uiso   1.00
H906   H     0.24801   0.85528   0.29647   0.00000  Uiso   1.00
H907   H     0.23038   0.88656   0.22028   0.00000  Uiso   1.00
H908   H     0.19254   0.86810   0.24132   0.00000  Uiso   1.00
H909   H     0.16127   0.86233   0.34550   0.00000  Uiso   1.00
H910   H     0.16103   0.86200   0.40667   0.00000  Uiso   1.00
H911   H     0.17745   0.81019   0.40570   0.00000  Uiso   1.00
H912   H     0.17763   0.81049   0.34444   0.00000  Uiso   1.00
H913   H     0.14914   0.77822   0.54083   0.00000  Uiso   1.00
H914   H     0.16905   0.81647   0.51917   0.00000  Uiso   1.00
H915   H     0.13658   0.79302   0.42611   0.00000  Uiso   1.00
H916   H     0.11667   0.75463   0.44719   0.00000  Uiso   1.00
H917   H     0.18412   0.88301   0.47341   0.00000  Uiso   1.00
H918   H     0.16484   0.90217   0.49345   0.00000  Uiso   1.00
H919   H     0.10340   0.83993   0.48867   0.00000  Uiso   1.00
H920   H     0.12307   0.82105   0.46920   0.00000  Uiso   1.00
H921   H     0.18959   0.86002   0.51724   0.00000  Uiso   1.00
H922   H     0.22738   0.87837   0.53850   0.00000  Uiso   1.00
H923   H     0.24820   0.85971   0.44988   0.00000  Uiso   1.00
H924   H     0.21040   0.84180   0.42893   0.00000  Uiso   1.00
C1387  C     0.12012   0.99137   0.00786   0.00000  Uiso   1.00
C1388  C     0.09910   0.97616   0.99668   0.00000  Uiso   1.00
C1389  C     0.08832   0.95472   0.00847   0.00000  Uiso   1.00
C1390  C     0.09826   0.94791   0.03127   0.00000  Uiso   1.00
C1391  C     0.11898   0.96300   0.04278   0.00000  Uiso   1.00
C1392  C     0.12990   0.98451   0.03126   0.00000  Uiso   1.00
H925   H     0.09094   0.98129   0.97858   0.00000  Uiso   1.00
H926   H     0.07167   0.94290   0.99962   0.00000  Uiso   1.00
H927   H     0.12687   0.95768   0.06115   0.00000  Uiso   1.00
H928   H     0.14648   0.99619   0.04039   0.00000  Uiso   1.00
C1393  C     0.11875   0.91648   0.01117   0.00000  Uiso   1.00
C1394  C     0.09933   0.90457   0.02832   0.00000  Uiso   1.00
C1395  C     0.09080   0.88199   0.03323   0.00000  Uiso   1.00
C1396  C     0.10162   0.87144   0.02161   0.00000  Uiso   1.00
C1397  C     0.12134   0.88338   0.00456   0.00000  Uiso   1.00
C1398  C     0.12972   0.90611   0.99942   0.00000  Uiso   1.00
Si67   Si    0.08472   0.91850   0.04539   0.00000  Uiso   1.00
C1399  C     0.05582   0.90289   0.03076   0.00000  Uiso   1.00
C1400  C     0.03848   0.89480   0.05261   0.00000  Uiso   1.00
C1401  C     0.01719   0.88415   0.04137   0.00000  Uiso   1.00
C1402  C     0.01278   0.88129   0.00774   0.00000  Uiso   1.00
C1403  C     0.03038   0.88926   0.98588   0.00000  Uiso   1.00
C1404  C     0.05159   0.89983   0.99742   0.00000  Uiso   1.00
C1405  C     0.09293   0.90648   0.10807   0.00000  Uiso   1.00
C1406  C     0.09297   0.90640   0.14239   0.00000  Uiso   1.00
C1407  C     0.08574   0.91860   0.15976   0.00000  Uiso   1.00
C1408  C     0.07856   0.93098   0.14302   0.00000  Uiso   1.00
C1409  C     0.07848   0.93103   0.10868   0.00000  Uiso   1.00
C1410  C     0.08557   0.91868   0.09132   0.00000  Uiso   1.00
Si68   Si    0.08562   0.91849   0.20571   0.00000  Uiso   1.00
C1411  C     0.12281   0.99135   0.24475   0.00000  Uiso   1.00
C1412  C     0.10835   0.97399   0.26496   0.00000  Uiso   1.00
C1413  C     0.09727   0.95246   0.25316   0.00000  Uiso   1.00
C1414  C     0.10028   0.94773   0.22119   0.00000  Uiso   1.00
C1415  C     0.11462   0.96487   0.20104   0.00000  Uiso   1.00
C1416  C     0.12582   0.98647   0.21256   0.00000  Uiso   1.00
C1417  C     0.10024   0.90415   0.22078   0.00000  Uiso   1.00
C1418  C     0.08867   0.88206   0.23020   0.00000  Uiso   1.00
C1419  C     0.09953   0.87156   0.24162   0.00000  Uiso   1.00
C1420  C     0.12237   0.88309   0.24380   0.00000  Uiso   1.00
C1421  C     0.13392   0.90534   0.23415   0.00000  Uiso   1.00
C1422  C     0.12289   0.91566   0.22275   0.00000  Uiso   1.00
C1423  C     0.05267   0.89832   0.25385   0.00000  Uiso   1.00
C1424  C     0.03155   0.88803   0.26570   0.00000  Uiso   1.00
C1425  C     0.01402   0.88287   0.24463   0.00000  Uiso   1.00
C1426  C     0.01834   0.88823   0.21148   0.00000  Uiso   1.00
C1427  C     0.03955   0.89851   0.19995   0.00000  Uiso   1.00
C1428  C     0.05686   0.90377   0.22101   0.00000  Uiso   1.00
H929   H     0.12549   0.93441   0.00682   0.00000  Uiso   1.00
H930   H     0.07526   0.87241   0.04670   0.00000  Uiso   1.00
H931   H     0.09470   0.85354   0.02615   0.00000  Uiso   1.00
H932   H     0.14507   0.91585   0.98571   0.00000  Uiso   1.00
H933   H     0.04173   0.89690   0.07921   0.00000  Uiso   1.00
H934   H     0.00365   0.87777   0.05914   0.00000  Uiso   1.00
H935   H     0.02740   0.88731   0.95926   0.00000  Uiso   1.00
H936   H     0.06536   0.90607   0.97995   0.00000  Uiso   1.00
H937   H     0.09882   0.89676   0.09441   0.00000  Uiso   1.00
H938   H     0.09884   0.89657   0.15560   0.00000  Uiso   1.00
H939   H     0.07288   0.94087   0.15676   0.00000  Uiso   1.00
H940   H     0.07272   0.94094   0.09543   0.00000  Uiso   1.00
H941   H     0.10583   0.97739   0.29052   0.00000  Uiso   1.00
H942   H     0.08594   0.93890   0.26939   0.00000  Uiso   1.00
H943   H     0.11707   0.96122   0.17552   0.00000  Uiso   1.00
H944   H     0.13701   0.99989   0.19608   0.00000  Uiso   1.00
H945   H     0.07063   0.87283   0.22868   0.00000  Uiso   1.00
H946   H     0.09006   0.85406   0.24930   0.00000  Uiso   1.00
H947   H     0.15194   0.91471   0.23536   0.00000  Uiso   1.00
H948   H     0.13216   0.93323   0.21513   0.00000  Uiso   1.00
H949   H     0.06638   0.90230   0.27072   0.00000  Uiso   1.00
H950   H     0.02860   0.88407   0.29196   0.00000  Uiso   1.00
H951   H     0.00481   0.88411   0.19429   0.00000  Uiso   1.00
H952   H     0.04271   0.90255   0.17368   0.00000  Uiso   1.00
C1429  C     0.38528   0.76447   0.25823   0.00000  Uiso   1.00
C1430  C     0.40574   0.77802   0.24523   0.00000  Uiso   1.00
C1431  C     0.41643   0.80068   0.25738   0.00000  Uiso   1.00
C1432  C     0.40602   0.80696   0.28017   0.00000  Uiso   1.00
C1433  C     0.38547   0.79232   0.29233   0.00000  Uiso   1.00
C1434  C     0.37392   0.76949   0.28089   0.00000  Uiso   1.00
H953   H     0.41334   0.77210   0.22703   0.00000  Uiso   1.00
H954   H     0.43285   0.81288   0.24847   0.00000  Uiso   1.00
H955   H     0.37787   0.79805   0.31059   0.00000  Uiso   1.00
H956   H     0.35739   0.75714   0.28963   0.00000  Uiso   1.00
C1435  C     0.38617   0.83932   0.26271   0.00000  Uiso   1.00
C1436  C     0.40586   0.85138   0.27936   0.00000  Uiso   1.00
C1437  C     0.41459   0.87408   0.28396   0.00000  Uiso   1.00
C1438  C     0.40380   0.88460   0.27236   0.00000  Uiso   1.00
C1439  C     0.38387   0.87250   0.25580   0.00000  Uiso   1.00
C1440  C     0.37522   0.84966   0.25109   0.00000  Uiso   1.00
Si69   Si    0.42040   0.83732   0.29548   0.00000  Uiso   1.00
C1441  C     0.44915   0.85190   0.28068   0.00000  Uiso   1.00
C1442  C     0.46478   0.84850   0.29594   0.00000  Uiso   1.00
C1443  C     0.48594   0.85859   0.28429   0.00000  Uiso   1.00
C1444  C     0.49196   0.87244   0.25693   0.00000  Uiso   1.00
C1445  C     0.47614   0.87586   0.24173   0.00000  Uiso   1.00
C1446  C     0.45503   0.86569   0.25358   0.00000  Uiso   1.00
C1447  C     0.41522   0.85127   0.35877   0.00000  Uiso   1.00
C1448  C     0.41510   0.85103   0.39307   0.00000  Uiso   1.00
C1449  C     0.41960   0.83655   0.40981   0.00000  Uiso   1.00
C1450  C     0.42421   0.82229   0.39238   0.00000  Uiso   1.00
C1451  C     0.42430   0.82248   0.35807   0.00000  Uiso   1.00
C1452  C     0.41989   0.83705   0.34129   0.00000  Uiso   1.00
Si70   Si    0.41927   0.83627   0.45574   0.00000  Uiso   1.00
C1453  C     0.38112   0.76347   0.49535   0.00000  Uiso   1.00
C1454  C     0.39547   0.78116   0.51592   0.00000  Uiso   1.00
C1455  C     0.40692   0.80290   0.50345   0.00000  Uiso   1.00
C1456  C     0.40412   0.80705   0.47118   0.00000  Uiso   1.00
C1457  C     0.38997   0.78979   0.45082   0.00000  Uiso   1.00
C1458  C     0.37839   0.76786   0.46257   0.00000  Uiso   1.00
C1459  C     0.40488   0.85104   0.47040   0.00000  Uiso   1.00
C1460  C     0.41631   0.87368   0.47702   0.00000  Uiso   1.00
C1461  C     0.40549   0.88438   0.48807   0.00000  Uiso   1.00
C1462  C     0.38282   0.87254   0.49266   0.00000  Uiso   1.00
C1463  C     0.37139   0.84975   0.48563   0.00000  Uiso   1.00
C1464  C     0.38239   0.83922   0.47465   0.00000  Uiso   1.00
C1465  C     0.45281   0.86027   0.50234   0.00000  Uiso   1.00
C1466  C     0.47392   0.87044   0.51427   0.00000  Uiso   1.00
C1467  C     0.49067   0.87061   0.49567   0.00000  Uiso   1.00
C1468  C     0.48550   0.86020   0.46493   0.00000  Uiso   1.00
C1469  C     0.46433   0.85012   0.45326   0.00000  Uiso   1.00
C1470  C     0.44785   0.85011   0.47177   0.00000  Uiso   1.00
H957   H     0.37922   0.82130   0.25865   0.00000  Uiso   1.00
H958   H     0.43029   0.88378   0.29708   0.00000  Uiso   1.00
H959   H     0.41090   0.90260   0.27652   0.00000  Uiso   1.00
H960   H     0.35966   0.83981   0.23780   0.00000  Uiso   1.00
H961   H     0.46022   0.83755   0.31748   0.00000  Uiso   1.00
H962   H     0.49805   0.85551   0.29657   0.00000  Uiso   1.00
H963   H     0.48052   0.88686   0.22034   0.00000  Uiso   1.00
H964   H     0.44271   0.86854   0.24139   0.00000  Uiso   1.00
H965   H     0.41152   0.86284   0.34567   0.00000  Uiso   1.00
H966   H     0.41133   0.86243   0.40680   0.00000  Uiso   1.00
H967   H     0.42777   0.81063   0.40556   0.00000  Uiso   1.00
H968   H     0.42786   0.81094   0.34433   0.00000  Uiso   1.00
H969   H     0.39776   0.77797   0.54164   0.00000  Uiso   1.00
H970   H     0.41821   0.81676   0.51948   0.00000  Uiso   1.00
H971   H     0.38777   0.79325   0.42519   0.00000  Uiso   1.00
H972   H     0.36721   0.75418   0.44620   0.00000  Uiso   1.00
H973   H     0.43422   0.88320   0.47355   0.00000  Uiso   1.00
H974   H     0.41491   0.90232   0.49356   0.00000  Uiso   1.00
H975   H     0.35349   0.84006   0.48864   0.00000  Uiso   1.00
H976   H     0.37320   0.82122   0.46918   0.00000  Uiso   1.00
H977   H     0.43975   0.86029   0.51724   0.00000  Uiso   1.00
H978   H     0.47754   0.87862   0.53847   0.00000  Uiso   1.00
H979   H     0.49830   0.85986   0.44989   0.00000  Uiso   1.00
H980   H     0.46050   0.84197   0.42896   0.00000  Uiso   1.00
C1471  C     0.37010   0.99141   0.00784   0.00000  Uiso   1.00
C1472  C     0.34908   0.97622   0.99666   0.00000  Uiso   1.00
C1473  C     0.33828   0.95478   0.00845   0.00000  Uiso   1.00
C1474  C     0.34820   0.94796   0.03126   0.00000  Uiso   1.00
C1475  C     0.36892   0.96303   0.04279   0.00000  Uiso   1.00
C1476  C     0.37986   0.98454   0.03127   0.00000  Uiso   1.00
H981   H     0.34094   0.98136   0.97854   0.00000  Uiso   1.00
H982   H     0.32162   0.94297   0.99958   0.00000  Uiso   1.00
H983   H     0.37679   0.95770   0.06117   0.00000  Uiso   1.00
H984   H     0.39644   0.99621   0.04040   0.00000  Uiso   1.00
C1477  C     0.36874   0.91661   0.01113   0.00000  Uiso   1.00
C1478  C     0.34933   0.90466   0.02829   0.00000  Uiso   1.00
C1479  C     0.34086   0.88209   0.03318   0.00000  Uiso   1.00
C1480  C     0.35173   0.87159   0.02157   0.00000  Uiso   1.00
C1481  C     0.37144   0.88357   0.00453   0.00000  Uiso   1.00
C1482  C     0.37976   0.90629   0.99939   0.00000  Uiso   1.00
Si71   Si    0.33467   0.91854   0.04536   0.00000  Uiso   1.00
C1483  C     0.30577   0.90292   0.03073   0.00000  Uiso   1.00
C1484  C     0.28843   0.89481   0.05259   0.00000  Uiso   1.00
C1485  C     0.26714   0.88415   0.04136   0.00000  Uiso   1.00
C1486  C     0.26273   0.88129   0.00773   0.00000  Uiso   1.00
C1487  C     0.28032   0.88926   0.98586   0.00000  Uiso   1.00
C1488  C     0.30154   0.89985   0.99739   0.00000  Uiso   1.00
C1489  C     0.34285   0.90654   0.10806   0.00000  Uiso   1.00
C1490  C     0.34288   0.90646   0.14238   0.00000  Uiso   1.00
C1491  C     0.33565   0.91866   0.15973   0.00000  Uiso   1.00
C1492  C     0.32847   0.93104   0.14297   0.00000  Uiso   1.00
C1493  C     0.32840   0.93108   0.10863   0.00000  Uiso   1.00
C1494  C     0.33549   0.91873   0.09128   0.00000  Uiso   1.00
Si72   Si    0.33555   0.91856   0.20567   0.00000  Uiso   1.00
C1495  C     0.37281   0.99141   0.24476   0.00000  Uiso   1.00
C1496  C     0.35833   0.97405   0.26496   0.00000  Uiso   1.00
C1497  C     0.34722   0.95252   0.25315   0.00000  Uiso   1.00
C1498  C     0.35020   0.94780   0.22116   0.00000  Uiso   1.00
C1499  C     0.36456   0.96493   0.20102   0.00000  Uiso   1.00
C1500  C     0.37580   0.98653   0.21256   0.00000  Uiso   1.00
C1501  C     0.35022   0.90428   0.22072   0.00000  Uiso   1.00
C1502  C     0.33870   0.88220   0.23020   0.00000  Uiso   1.00
C1503  C     0.34961   0.87175   0.24164   0.00000  Uiso   1.00
C1504  C     0.37244   0.88332   0.24379   0.00000  Uiso   1.00
C1505  C     0.38395   0.90556   0.23409   0.00000  Uiso   1.00
C1506  C     0.37287   0.91583   0.22266   0.00000  Uiso   1.00
C1507  C     0.30262   0.89836   0.25384   0.00000  Uiso   1.00
C1508  C     0.28149   0.88804   0.26569   0.00000  Uiso   1.00
C1509  C     0.26395   0.88287   0.24463   0.00000  Uiso   1.00
C1510  C     0.26827   0.88823   0.21148   0.00000  Uiso   1.00
C1511  C     0.28947   0.89853   0.19993   0.00000  Uiso   1.00
C1512  C     0.30680   0.90381   0.22099   0.00000  Uiso   1.00
H985   H     0.37544   0.93453   0.00678   0.00000  Uiso   1.00
H986   H     0.32532   0.87247   0.04665   0.00000  Uiso   1.00
H987   H     0.34485   0.85370   0.02610   0.00000  Uiso   1.00
H988   H     0.39511   0.91607   0.98568   0.00000  Uiso   1.00
H989   H     0.29169   0.89692   0.07919   0.00000  Uiso   1.00
H990   H     0.25360   0.87776   0.05913   0.00000  Uiso   1.00
H991   H     0.27734   0.88731   0.95925   0.00000  Uiso   1.00
H992   H     0.31530   0.90611   0.97991   0.00000  Uiso   1.00
H993   H     0.34874   0.89681   0.09441   0.00000  Uiso   1.00
H994   H     0.34875   0.89663   0.15560   0.00000  Uiso   1.00
H995   H     0.32278   0.94092   0.15669   0.00000  Uiso   1.00
H996   H     0.32264   0.94099   0.09537   0.00000  Uiso   1.00
H997   H     0.35583   0.97744   0.29053   0.00000  Uiso   1.00
H998   H     0.33588   0.93896   0.26937   0.00000  Uiso   1.00
H999   H     0.36699   0.96128   0.17549   0.00000  Uiso   1.00
H1000  H     0.38700   0.99995   0.19609   0.00000  Uiso   1.00
H1001  H     0.32066   0.87292   0.22871   0.00000  Uiso   1.00
H1002  H     0.34017   0.85426   0.24937   0.00000  Uiso   1.00
H1003  H     0.40197   0.91497   0.23528   0.00000  Uiso   1.00
H1004  H     0.38211   0.93339   0.21499   0.00000  Uiso   1.00
H1005  H     0.31633   0.90235   0.27070   0.00000  Uiso   1.00
H1006  H     0.27855   0.88408   0.29195   0.00000  Uiso   1.00
H1007  H     0.25472   0.88409   0.19429   0.00000  Uiso   1.00
H1008  H     0.29263   0.90257   0.17367   0.00000  Uiso   1.00
C1513  C     0.13413   0.51379   0.75693   0.00000  Uiso   1.00
C1514  C     0.15479   0.52912   0.74485   0.00000  Uiso   1.00
C1515  C     0.16558   0.55069   0.75653   0.00000  Uiso   1.00
C1516  C     0.15603   0.55743   0.78029   0.00000  Uiso   1.00
C1517  C     0.13561   0.54227   0.79257   0.00000  Uiso   1.00
C1518  C     0.12468   0.52067   0.78107   0.00000  Uiso   1.00
H1009  H     0.16266   0.52401   0.72607   0.00000  Uiso   1.00
H1010  H     0.18192   0.56267   0.74688   0.00000  Uiso   1.00
H1011  H     0.12800   0.54760   0.81155   0.00000  Uiso   1.00
H1012  H     0.10834   0.50892   0.79082   0.00000  Uiso   1.00
C1519  C     0.13581   0.58893   0.76260   0.00000  Uiso   1.00
C1520  C     0.15549   0.60093   0.77917   0.00000  Uiso   1.00
C1521  C     0.16425   0.62360   0.78383   0.00000  Uiso   1.00
C1522  C     0.15350   0.63419   0.77230   0.00000  Uiso   1.00
C1523  C     0.13357   0.62214   0.75575   0.00000  Uiso   1.00
C1524  C     0.12486   0.59930   0.75102   0.00000  Uiso   1.00
Si73   Si    0.17004   0.58676   0.79526   0.00000  Uiso   1.00
C1525  C     0.19902   0.60154   0.78048   0.00000  Uiso   1.00
C1526  C     0.21444   0.59776   0.79547   0.00000  Uiso   1.00
C1527  C     0.23609   0.60812   0.78384   0.00000  Uiso   1.00
C1528  C     0.24215   0.62254   0.75684   0.00000  Uiso   1.00
C1529  C     0.22638   0.62636   0.74183   0.00000  Uiso   1.00
C1530  C     0.20483   0.61570   0.75391   0.00000  Uiso   1.00
C1531  C     0.16456   0.60057   0.85848   0.00000  Uiso   1.00
C1532  C     0.16434   0.60036   0.89279   0.00000  Uiso   1.00
C1533  C     0.16885   0.58592   0.90968   0.00000  Uiso   1.00
C1534  C     0.17348   0.57162   0.89233   0.00000  Uiso   1.00
C1535  C     0.17366   0.57182   0.85802   0.00000  Uiso   1.00
C1536  C     0.16932   0.58638   0.84117   0.00000  Uiso   1.00
Si74   Si    0.16865   0.58589   0.95549   0.00000  Uiso   1.00
C1537  C     0.13136   0.51370   0.99537   0.00000  Uiso   1.00
C1538  C     0.14619   0.53131   0.01518   0.00000  Uiso   1.00
C1539  C     0.15720   0.55266   0.00308   0.00000  Uiso   1.00
C1540  C     0.15376   0.55695   0.97113   0.00000  Uiso   1.00
C1541  C     0.13900   0.53954   0.95139   0.00000  Uiso   1.00
C1542  C     0.12788   0.51814   0.96327   0.00000  Uiso   1.00
C1543  C     0.15438   0.60067   0.97009   0.00000  Uiso   1.00
C1544  C     0.16587   0.62335   0.97663   0.00000  Uiso   1.00
C1545  C     0.15512   0.63408   0.98777   0.00000  Uiso   1.00
C1546  C     0.13245   0.62228   0.99251   0.00000  Uiso   1.00
C1547  C     0.12095   0.59947   0.98555   0.00000  Uiso   1.00
C1548  C     0.13186   0.58888   0.97449   0.00000  Uiso   1.00
C1549  C     0.20251   0.61030   0.00257   0.00000  Uiso   1.00
C1550  C     0.22445   0.62075   0.01597   0.00000  Uiso   1.00
C1551  C     0.23950   0.61946   0.99597   0.00000  Uiso   1.00
C1552  C     0.23648   0.60979   0.96548   0.00000  Uiso   1.00
C1553  C     0.21427   0.59975   0.95324   0.00000  Uiso   1.00
C1554  C     0.19822   0.60028   0.97202   0.00000  Uiso   1.00
H1013  H     0.12882   0.57090   0.75852   0.00000  Uiso   1.00
H1014  H     0.17997   0.63326   0.79694   0.00000  Uiso   1.00
H1015  H     0.16065   0.65219   0.77649   0.00000  Uiso   1.00
H1016  H     0.10929   0.58948   0.73776   0.00000  Uiso   1.00
H1017  H     0.20968   0.58649   0.81664   0.00000  Uiso   1.00
H1018  H     0.24827   0.60498   0.79584   0.00000  Uiso   1.00
H1019  H     0.23091   0.63764   0.72071   0.00000  Uiso   1.00
H1020  H     0.19245   0.61862   0.74210   0.00000  Uiso   1.00
H1021  H     0.16086   0.61210   0.84527   0.00000  Uiso   1.00
H1022  H     0.16051   0.61176   0.90641   0.00000  Uiso   1.00
H1023  H     0.17699   0.55996   0.90559   0.00000  Uiso   1.00
H1024  H     0.17726   0.56028   0.84436   0.00000  Uiso   1.00
H1025  H     0.14904   0.52824   0.04066   0.00000  Uiso   1.00
H1026  H     0.16884   0.56646   0.01894   0.00000  Uiso   1.00
H1027  H     0.13617   0.54284   0.92597   0.00000  Uiso   1.00
H1028  H     0.11638   0.50449   0.94715   0.00000  Uiso   1.00
H1029  H     0.18377   0.63285   0.97303   0.00000  Uiso   1.00
H1030  H     0.16457   0.65203   0.99321   0.00000  Uiso   1.00
H1031  H     0.10306   0.58982   0.98868   0.00000  Uiso   1.00
H1032  H     0.12262   0.57088   0.96908   0.00000  Uiso   1.00
H1033  H     0.18925   0.61032   0.01675   0.00000  Uiso   1.00
H1034  H     0.22875   0.62906   0.04023   0.00000  Uiso   1.00
H1035  H     0.24988   0.60971   0.95149   0.00000  Uiso   1.00
H1036  H     0.21019   0.59166   0.92900   0.00000  Uiso   1.00
C1555  C     0.12011   0.74142   0.50784   0.00000  Uiso   1.00
C1556  C     0.09909   0.72623   0.49667   0.00000  Uiso   1.00
C1557  C     0.08829   0.70479   0.50846   0.00000  Uiso   1.00
C1558  C     0.09821   0.69797   0.53126   0.00000  Uiso   1.00
C1559  C     0.11894   0.71304   0.54279   0.00000  Uiso   1.00
C1560  C     0.12987   0.73456   0.53126   0.00000  Uiso   1.00
H1037  H     0.09094   0.73136   0.47856   0.00000  Uiso   1.00
H1038  H     0.07163   0.69298   0.49961   0.00000  Uiso   1.00
H1039  H     0.12682   0.70772   0.56116   0.00000  Uiso   1.00
H1040  H     0.14645   0.74623   0.54039   0.00000  Uiso   1.00
C1561  C     0.11864   0.66648   0.51117   0.00000  Uiso   1.00
C1562  C     0.09923   0.65459   0.52837   0.00000  Uiso   1.00
C1563  C     0.09068   0.63201   0.53329   0.00000  Uiso   1.00
C1564  C     0.10146   0.62143   0.52164   0.00000  Uiso   1.00
C1565  C     0.12116   0.63334   0.50453   0.00000  Uiso   1.00
C1566  C     0.12956   0.65607   0.49938   0.00000  Uiso   1.00
Si75   Si    0.08465   0.66857   0.54541   0.00000  Uiso   1.00
C1567  C     0.05576   0.65296   0.53077   0.00000  Uiso   1.00
C1568  C     0.03842   0.64484   0.55261   0.00000  Uiso   1.00
C1569  C     0.01713   0.63416   0.54137   0.00000  Uiso   1.00
C1570  C     0.01273   0.63129   0.50773   0.00000  Uiso   1.00
C1571  C     0.03032   0.63928   0.48588   0.00000  Uiso   1.00
C1572  C     0.05154   0.64988   0.49742   0.00000  Uiso   1.00
C1573  C     0.09287   0.65657   0.60808   0.00000  Uiso   1.00
C1574  C     0.09291   0.65648   0.64240   0.00000  Uiso   1.00
C1575  C     0.08567   0.66868   0.65977   0.00000  Uiso   1.00
C1576  C     0.07849   0.68106   0.64303   0.00000  Uiso   1.00
C1577  C     0.07841   0.68110   0.60870   0.00000  Uiso   1.00
C1578  C     0.08550   0.66876   0.59133   0.00000  Uiso   1.00
Si76   Si    0.08556   0.66855   0.70571   0.00000  Uiso   1.00
C1579  C     0.12281   0.74141   0.74478   0.00000  Uiso   1.00
C1580  C     0.10835   0.72405   0.76499   0.00000  Uiso   1.00
C1581  C     0.09725   0.70252   0.75319   0.00000  Uiso   1.00
C1582  C     0.10025   0.69779   0.72121   0.00000  Uiso   1.00
C1583  C     0.11459   0.71492   0.70106   0.00000  Uiso   1.00
C1584  C     0.12581   0.73652   0.71258   0.00000  Uiso   1.00
C1585  C     0.10015   0.65417   0.72075   0.00000  Uiso   1.00
C1586  C     0.08855   0.63208   0.73016   0.00000  Uiso   1.00
C1587  C     0.09937   0.62155   0.74158   0.00000  Uiso   1.00
C1588  C     0.12221   0.63304   0.74376   0.00000  Uiso   1.00
C1589  C     0.13379   0.65529   0.73411   0.00000  Uiso   1.00
C1590  C     0.12279   0.66564   0.72271   0.00000  Uiso   1.00
C1591  C     0.05262   0.64839   0.75387   0.00000  Uiso   1.00
C1592  C     0.03150   0.63806   0.76571   0.00000  Uiso   1.00
C1593  C     0.01396   0.63287   0.74465   0.00000  Uiso   1.00
C1594  C     0.01828   0.63824   0.71149   0.00000  Uiso   1.00
C1595  C     0.03949   0.64855   0.69996   0.00000  Uiso   1.00
C1596  C     0.05681   0.65383   0.72103   0.00000  Uiso   1.00
H1041  H     0.12540   0.68441   0.50682   0.00000  Uiso   1.00
H1042  H     0.07516   0.62246   0.54680   0.00000  Uiso   1.00
H1043  H     0.09452   0.60353   0.52618   0.00000  Uiso   1.00
H1044  H     0.14491   0.66579   0.48565   0.00000  Uiso   1.00
H1045  H     0.04167   0.64695   0.57922   0.00000  Uiso   1.00
H1046  H     0.00358   0.62776   0.55913   0.00000  Uiso   1.00
H1047  H     0.02735   0.63732   0.45926   0.00000  Uiso   1.00
H1048  H     0.06530   0.65615   0.47996   0.00000  Uiso   1.00
H1049  H     0.09876   0.64685   0.59442   0.00000  Uiso   1.00
H1050  H     0.09879   0.64666   0.65561   0.00000  Uiso   1.00
H1051  H     0.07280   0.69094   0.65678   0.00000  Uiso   1.00
H1052  H     0.07264   0.69101   0.59545   0.00000  Uiso   1.00
H1053  H     0.10584   0.72745   0.79055   0.00000  Uiso   1.00
H1054  H     0.08592   0.68896   0.76941   0.00000  Uiso   1.00
H1055  H     0.11703   0.71127   0.67554   0.00000  Uiso   1.00
H1056  H     0.13700   0.74994   0.69610   0.00000  Uiso   1.00
H1057  H     0.07050   0.62287   0.72864   0.00000  Uiso   1.00
H1058  H     0.08987   0.60405   0.74925   0.00000  Uiso   1.00
H1059  H     0.15181   0.66463   0.73532   0.00000  Uiso   1.00
H1060  H     0.13209   0.68322   0.71509   0.00000  Uiso   1.00
H1061  H     0.06633   0.65238   0.77074   0.00000  Uiso   1.00
H1062  H     0.02856   0.63409   0.79197   0.00000  Uiso   1.00
H1063  H     0.00474   0.63410   0.69430   0.00000  Uiso   1.00
H1064  H     0.04265   0.65259   0.67370   0.00000  Uiso   1.00
C1597  C     0.13428   0.76389   0.75697   0.00000  Uiso   1.00
C1598  C     0.15496   0.77921   0.74492   0.00000  Uiso   1.00
C1599  C     0.16577   0.80076   0.75667   0.00000  Uiso   1.00
C1600  C     0.15623   0.80750   0.78044   0.00000  Uiso   1.00
C1601  C     0.13580   0.79235   0.79270   0.00000  Uiso   1.00
C1602  C     0.12484   0.77076   0.78114   0.00000  Uiso   1.00
H1065  H     0.16282   0.77411   0.72613   0.00000  Uiso   1.00
H1066  H     0.18213   0.81273   0.74705   0.00000  Uiso   1.00
H1067  H     0.12819   0.79767   0.81170   0.00000  Uiso   1.00
H1068  H     0.10850   0.75901   0.79087   0.00000  Uiso   1.00
C1603  C     0.13599   0.83900   0.76268   0.00000  Uiso   1.00
C1604  C     0.15568   0.85102   0.77924   0.00000  Uiso   1.00
C1605  C     0.16446   0.87369   0.78385   0.00000  Uiso   1.00
C1606  C     0.15370   0.88427   0.77230   0.00000  Uiso   1.00
C1607  C     0.13376   0.87222   0.75578   0.00000  Uiso   1.00
C1608  C     0.12505   0.84937   0.75109   0.00000  Uiso   1.00
Si77   Si    0.17022   0.83684   0.79536   0.00000  Uiso   1.00
C1609  C     0.19907   0.85152   0.78054   0.00000  Uiso   1.00
C1610  C     0.21470   0.84817   0.79579   0.00000  Uiso   1.00
C1611  C     0.23588   0.85832   0.78418   0.00000  Uiso   1.00
C1612  C     0.24187   0.87219   0.75686   0.00000  Uiso   1.00
C1613  C     0.22603   0.87554   0.74165   0.00000  Uiso   1.00
C1614  C     0.20491   0.86529   0.75349   0.00000  Uiso   1.00
C1615  C     0.16497   0.85079   0.85865   0.00000  Uiso   1.00
C1616  C     0.16482   0.85059   0.89298   0.00000  Uiso   1.00
C1617  C     0.16933   0.83615   0.90979   0.00000  Uiso   1.00
C1618  C     0.17392   0.82185   0.89245   0.00000  Uiso   1.00
C1619  C     0.17405   0.82204   0.85812   0.00000  Uiso   1.00
C1620  C     0.16967   0.83657   0.84131   0.00000  Uiso   1.00
Si78   Si    0.16913   0.83607   0.95574   0.00000  Uiso   1.00
C1621  C     0.13155   0.76376   0.99546   0.00000  Uiso   1.00
C1622  C     0.14635   0.78133   0.01533   0.00000  Uiso   1.00
C1623  C     0.15742   0.80270   0.00325   0.00000  Uiso   1.00
C1624  C     0.15406   0.80701   0.97133   0.00000  Uiso   1.00
C1625  C     0.13934   0.78967   0.95153   0.00000  Uiso   1.00
C1626  C     0.12815   0.76824   0.96335   0.00000  Uiso   1.00
C1627  C     0.15476   0.85087   0.97034   0.00000  Uiso   1.00
C1628  C     0.16621   0.87351   0.97691   0.00000  Uiso   1.00
C1629  C     0.15542   0.88423   0.98798   0.00000  Uiso   1.00
C1630  C     0.13275   0.87240   0.99262   0.00000  Uiso   1.00
C1631  C     0.12129   0.84960   0.98562   0.00000  Uiso   1.00
C1632  C     0.13227   0.83906   0.97462   0.00000  Uiso   1.00
C1633  C     0.20266   0.86003   0.00233   0.00000  Uiso   1.00
C1634  C     0.22377   0.87020   0.01428   0.00000  Uiso   1.00
C1635  C     0.24053   0.87042   0.99566   0.00000  Uiso   1.00
C1636  C     0.23538   0.86002   0.96492   0.00000  Uiso   1.00
C1637  C     0.21421   0.84993   0.95323   0.00000  Uiso   1.00
C1638  C     0.19772   0.84990   0.97173   0.00000  Uiso   1.00
H1069  H     0.12900   0.82097   0.75864   0.00000  Uiso   1.00
H1070  H     0.18018   0.88337   0.79693   0.00000  Uiso   1.00
H1071  H     0.16084   0.90228   0.77646   0.00000  Uiso   1.00
H1072  H     0.10947   0.83954   0.73784   0.00000  Uiso   1.00
H1073  H     0.21015   0.83720   0.81732   0.00000  Uiso   1.00
H1074  H     0.24801   0.85528   0.79647   0.00000  Uiso   1.00
H1075  H     0.23038   0.88656   0.72027   0.00000  Uiso   1.00
H1076  H     0.19254   0.86809   0.74130   0.00000  Uiso   1.00
H1077  H     0.16127   0.86233   0.84548   0.00000  Uiso   1.00
H1078  H     0.16103   0.86201   0.90665   0.00000  Uiso   1.00
H1079  H     0.17745   0.81020   0.90569   0.00000  Uiso   1.00
H1080  H     0.17764   0.81048   0.84443   0.00000  Uiso   1.00
H1081  H     0.14914   0.77824   0.04082   0.00000  Uiso   1.00
H1082  H     0.16905   0.81648   0.01915   0.00000  Uiso   1.00
H1083  H     0.13658   0.79302   0.92609   0.00000  Uiso   1.00
H1084  H     0.11666   0.75463   0.94718   0.00000  Uiso   1.00
H1085  H     0.18412   0.88302   0.97340   0.00000  Uiso   1.00
H1086  H     0.16484   0.90218   0.99345   0.00000  Uiso   1.00
H1087  H     0.10340   0.83993   0.98867   0.00000  Uiso   1.00
H1088  H     0.12307   0.82106   0.96919   0.00000  Uiso   1.00
H1089  H     0.18958   0.86002   0.01723   0.00000  Uiso   1.00
H1090  H     0.22737   0.87837   0.03849   0.00000  Uiso   1.00
H1091  H     0.24820   0.85971   0.94988   0.00000  Uiso   1.00
H1092  H     0.21039   0.84180   0.92892   0.00000  Uiso   1.00
C1639  C     0.12012   0.99137   0.50786   0.00000  Uiso   1.00
C1640  C     0.09910   0.97616   0.49668   0.00000  Uiso   1.00
C1641  C     0.08832   0.95472   0.50847   0.00000  Uiso   1.00
C1642  C     0.09826   0.94791   0.53126   0.00000  Uiso   1.00
C1643  C     0.11898   0.96300   0.54278   0.00000  Uiso   1.00
C1644  C     0.12990   0.98451   0.53126   0.00000  Uiso   1.00
H1093  H     0.09095   0.98129   0.47858   0.00000  Uiso   1.00
H1094  H     0.07167   0.94290   0.49961   0.00000  Uiso   1.00
H1095  H     0.12687   0.95768   0.56114   0.00000  Uiso   1.00
H1096  H     0.14648   0.99619   0.54039   0.00000  Uiso   1.00
C1645  C     0.11875   0.91648   0.51117   0.00000  Uiso   1.00
C1646  C     0.09933   0.90456   0.52832   0.00000  Uiso   1.00
C1647  C     0.09080   0.88199   0.53322   0.00000  Uiso   1.00
C1648  C     0.10163   0.87144   0.52161   0.00000  Uiso   1.00
C1649  C     0.12134   0.88338   0.50456   0.00000  Uiso   1.00
C1650  C     0.12972   0.90611   0.49942   0.00000  Uiso   1.00
Si79   Si    0.08472   0.91850   0.54539   0.00000  Uiso   1.00
C1651  C     0.05582   0.90289   0.53076   0.00000  Uiso   1.00
C1652  C     0.03848   0.89480   0.55261   0.00000  Uiso   1.00
C1653  C     0.01719   0.88415   0.54137   0.00000  Uiso   1.00
C1654  C     0.01278   0.88129   0.50774   0.00000  Uiso   1.00
C1655  C     0.03038   0.88925   0.48588   0.00000  Uiso   1.00
C1656  C     0.05159   0.89983   0.49741   0.00000  Uiso   1.00
C1657  C     0.09293   0.90648   0.60807   0.00000  Uiso   1.00
C1658  C     0.09297   0.90640   0.64239   0.00000  Uiso   1.00
C1659  C     0.08574   0.91860   0.65976   0.00000  Uiso   1.00
C1660  C     0.07856   0.93098   0.64302   0.00000  Uiso   1.00
C1661  C     0.07848   0.93102   0.60868   0.00000  Uiso   1.00
C1662  C     0.08557   0.91868   0.59132   0.00000  Uiso   1.00
Si80   Si    0.08562   0.91849   0.70571   0.00000  Uiso   1.00
C1663  C     0.12281   0.99136   0.74475   0.00000  Uiso   1.00
C1664  C     0.10835   0.97399   0.76496   0.00000  Uiso   1.00
C1665  C     0.09727   0.95246   0.75316   0.00000  Uiso   1.00
C1666  C     0.10028   0.94773   0.72119   0.00000  Uiso   1.00
C1667  C     0.11462   0.96487   0.70104   0.00000  Uiso   1.00
C1668  C     0.12583   0.98647   0.71256   0.00000  Uiso   1.00
C1669  C     0.10024   0.90415   0.72078   0.00000  Uiso   1.00
C1670  C     0.08867   0.88206   0.73021   0.00000  Uiso   1.00
C1671  C     0.09953   0.87156   0.74162   0.00000  Uiso   1.00
C1672  C     0.12237   0.88309   0.74380   0.00000  Uiso   1.00
C1673  C     0.13392   0.90534   0.73415   0.00000  Uiso   1.00
C1674  C     0.12289   0.91566   0.72275   0.00000  Uiso   1.00
C1675  C     0.05267   0.89832   0.75385   0.00000  Uiso   1.00
C1676  C     0.03155   0.88803   0.76570   0.00000  Uiso   1.00
C1677  C     0.01402   0.88287   0.74463   0.00000  Uiso   1.00
C1678  C     0.01834   0.88823   0.71148   0.00000  Uiso   1.00
C1679  C     0.03955   0.89851   0.69995   0.00000  Uiso   1.00
C1680  C     0.05686   0.90377   0.72101   0.00000  Uiso   1.00
H1097  H     0.12549   0.93441   0.50682   0.00000  Uiso   1.00
H1098  H     0.07526   0.87241   0.54670   0.00000  Uiso   1.00
H1099  H     0.09470   0.85354   0.52615   0.00000  Uiso   1.00
H1100  H     0.14507   0.91585   0.48571   0.00000  Uiso   1.00
H1101  H     0.04174   0.89690   0.57921   0.00000  Uiso   1.00
H1102  H     0.00365   0.87777   0.55914   0.00000  Uiso   1.00
H1103  H     0.02740   0.88731   0.45926   0.00000  Uiso   1.00
H1104  H     0.06535   0.90607   0.47994   0.00000  Uiso   1.00
H1105  H     0.09882   0.89676   0.59441   0.00000  Uiso   1.00
H1106  H     0.09884   0.89657   0.65560   0.00000  Uiso   1.00
H1107  H     0.07288   0.94086   0.65676   0.00000  Uiso   1.00
H1108  H     0.07272   0.94094   0.59543   0.00000  Uiso   1.00
H1109  H     0.10583   0.97739   0.79052   0.00000  Uiso   1.00
H1110  H     0.08594   0.93890   0.76939   0.00000  Uiso   1.00
H1111  H     0.11707   0.96122   0.67552   0.00000  Uiso   1.00
H1112  H     0.13701   0.99989   0.69608   0.00000  Uiso   1.00
H1113  H     0.07063   0.87283   0.72869   0.00000  Uiso   1.00
H1114  H     0.09006   0.85406   0.74930   0.00000  Uiso   1.00
H1115  H     0.15194   0.91471   0.73536   0.00000  Uiso   1.00
H1116  H     0.13216   0.93323   0.71513   0.00000  Uiso   1.00
H1117  H     0.06638   0.90230   0.77072   0.00000  Uiso   1.00
H1118  H     0.02860   0.88407   0.79196   0.00000  Uiso   1.00
H1119  H     0.00481   0.88411   0.69429   0.00000  Uiso   1.00
H1120  H     0.04271   0.90255   0.67368   0.00000  Uiso   1.00
C1681  C     0.38467   0.76350   0.75737   0.00000  Uiso   1.00
C1682  C     0.40572   0.77883   0.74580   0.00000  Uiso   1.00
C1683  C     0.41636   0.80086   0.75756   0.00000  Uiso   1.00
C1684  C     0.40628   0.80755   0.78046   0.00000  Uiso   1.00
C1685  C     0.38566   0.79255   0.79221   0.00000  Uiso   1.00
C1686  C     0.37459   0.77044   0.78076   0.00000  Uiso   1.00
H1121  H     0.41382   0.77358   0.72758   0.00000  Uiso   1.00
H1122  H     0.43283   0.81290   0.74848   0.00000  Uiso   1.00
H1123  H     0.37784   0.79805   0.81056   0.00000  Uiso   1.00
H1124  H     0.35812   0.75861   0.79005   0.00000  Uiso   1.00
C1687  C     0.38608   0.83920   0.76252   0.00000  Uiso   1.00
C1688  C     0.40574   0.85121   0.77913   0.00000  Uiso   1.00
C1689  C     0.41451   0.87388   0.78375   0.00000  Uiso   1.00
C1690  C     0.40375   0.88446   0.77222   0.00000  Uiso   1.00
C1691  C     0.38382   0.87241   0.75569   0.00000  Uiso   1.00
C1692  C     0.37513   0.84957   0.75094   0.00000  Uiso   1.00
Si81   Si    0.42027   0.83703   0.79532   0.00000  Uiso   1.00
C1693  C     0.44912   0.85174   0.78054   0.00000  Uiso   1.00
C1694  C     0.46474   0.84838   0.79582   0.00000  Uiso   1.00
C1695  C     0.48592   0.85851   0.78422   0.00000  Uiso   1.00
C1696  C     0.49194   0.87237   0.75688   0.00000  Uiso   1.00
C1697  C     0.47612   0.87575   0.74167   0.00000  Uiso   1.00
C1698  C     0.45499   0.86553   0.75350   0.00000  Uiso   1.00
C1699  C     0.41518   0.85118   0.85856   0.00000  Uiso   1.00
C1700  C     0.41513   0.85110   0.89287   0.00000  Uiso   1.00
C1701  C     0.41968   0.83669   0.90976   0.00000  Uiso   1.00
C1702  C     0.42427   0.82236   0.89241   0.00000  Uiso   1.00
C1703  C     0.42427   0.82243   0.85810   0.00000  Uiso   1.00
C1704  C     0.41982   0.83690   0.84124   0.00000  Uiso   1.00
Si82   Si    0.41940   0.83655   0.95558   0.00000  Uiso   1.00
C1705  C     0.38156   0.76445   0.99463   0.00000  Uiso   1.00
C1706  C     0.39511   0.78041   0.01682   0.00000  Uiso   1.00
C1707  C     0.40683   0.80270   0.00368   0.00000  Uiso   1.00
C1708  C     0.40377   0.80644   0.97142   0.00000  Uiso   1.00
C1709  C     0.38976   0.78953   0.95057   0.00000  Uiso   1.00
C1710  C     0.37772   0.76687   0.96229   0.00000  Uiso   1.00
C1711  C     0.40503   0.85121   0.97026   0.00000  Uiso   1.00
C1712  C     0.41643   0.87388   0.97691   0.00000  Uiso   1.00
C1713  C     0.40558   0.88453   0.98798   0.00000  Uiso   1.00
C1714  C     0.38290   0.87264   0.99259   0.00000  Uiso   1.00
C1715  C     0.37150   0.84984   0.98556   0.00000  Uiso   1.00
C1716  C     0.38251   0.83935   0.97455   0.00000  Uiso   1.00
C1717  C     0.45283   0.86037   0.00228   0.00000  Uiso   1.00
C1718  C     0.47393   0.87050   0.01422   0.00000  Uiso   1.00
C1719  C     0.49068   0.87067   0.99562   0.00000  Uiso   1.00
C1720  C     0.48553   0.86028   0.96485   0.00000  Uiso   1.00
C1721  C     0.46438   0.85024   0.95313   0.00000  Uiso   1.00
C1722  C     0.44786   0.85023   0.97164   0.00000  Uiso   1.00
H1125  H     0.37910   0.82118   0.75844   0.00000  Uiso   1.00
H1126  H     0.43023   0.88355   0.79686   0.00000  Uiso   1.00
H1127  H     0.41089   0.90246   0.77641   0.00000  Uiso   1.00
H1128  H     0.35956   0.83975   0.73766   0.00000  Uiso   1.00
H1129  H     0.46017   0.83742   0.81735   0.00000  Uiso   1.00
H1130  H     0.49804   0.85545   0.79651   0.00000  Uiso   1.00
H1131  H     0.48049   0.88676   0.72028   0.00000  Uiso   1.00
H1132  H     0.44265   0.86834   0.74129   0.00000  Uiso   1.00
H1133  H     0.41144   0.86268   0.84535   0.00000  Uiso   1.00
H1134  H     0.41138   0.86256   0.90649   0.00000  Uiso   1.00
H1135  H     0.42785   0.81075   0.90568   0.00000  Uiso   1.00
H1136  H     0.42782   0.81084   0.84444   0.00000  Uiso   1.00
H1137  H     0.39693   0.77653   0.04248   0.00000  Uiso   1.00
H1138  H     0.41816   0.81668   0.01941   0.00000  Uiso   1.00
H1139  H     0.38773   0.79325   0.92507   0.00000  Uiso   1.00
H1140  H     0.36639   0.75271   0.94658   0.00000  Uiso   1.00
H1141  H     0.43434   0.88343   0.97343   0.00000  Uiso   1.00
H1142  H     0.41497   0.90247   0.99349   0.00000  Uiso   1.00
H1143  H     0.35360   0.84014   0.98858   0.00000  Uiso   1.00
H1144  H     0.37333   0.82135   0.96907   0.00000  Uiso   1.00
H1145  H     0.43977   0.86041   0.01718   0.00000  Uiso   1.00
H1146  H     0.47755   0.87867   0.03844   0.00000  Uiso   1.00
H1147  H     0.49834   0.85993   0.94983   0.00000  Uiso   1.00
H1148  H     0.46056   0.84211   0.92882   0.00000  Uiso   1.00
C1723  C     0.37011   0.99141   0.50784   0.00000  Uiso   1.00
C1724  C     0.34909   0.97622   0.49666   0.00000  Uiso   1.00
C1725  C     0.33829   0.95477   0.50845   0.00000  Uiso   1.00
C1726  C     0.34821   0.94796   0.53125   0.00000  Uiso   1.00
C1727  C     0.36893   0.96303   0.54278   0.00000  Uiso   1.00
C1728  C     0.37987   0.98454   0.53126   0.00000  Uiso   1.00
H1149  H     0.34095   0.98135   0.47855   0.00000  Uiso   1.00
H1150  H     0.32163   0.94297   0.49958   0.00000  Uiso   1.00
H1151  H     0.37681   0.95770   0.56115   0.00000  Uiso   1.00
H1152  H     0.39645   0.99621   0.54039   0.00000  Uiso   1.00
C1729  C     0.36872   0.91656   0.51114   0.00000  Uiso   1.00
C1730  C     0.34931   0.90463   0.52830   0.00000  Uiso   1.00
C1731  C     0.34081   0.88206   0.53321   0.00000  Uiso   1.00
C1732  C     0.35167   0.87154   0.52162   0.00000  Uiso   1.00
C1733  C     0.37138   0.88350   0.50457   0.00000  Uiso   1.00
C1734  C     0.37972   0.90622   0.49941   0.00000  Uiso   1.00
Si83   Si    0.33467   0.91855   0.54537   0.00000  Uiso   1.00
C1735  C     0.30577   0.90293   0.53074   0.00000  Uiso   1.00
C1736  C     0.28844   0.89482   0.55259   0.00000  Uiso   1.00
C1737  C     0.26715   0.88415   0.54136   0.00000  Uiso   1.00
C1738  C     0.26274   0.88129   0.50773   0.00000  Uiso   1.00
C1739  C     0.28032   0.88926   0.48586   0.00000  Uiso   1.00
C1740  C     0.30154   0.89986   0.49739   0.00000  Uiso   1.00
C1741  C     0.34286   0.90654   0.60806   0.00000  Uiso   1.00
C1742  C     0.34290   0.90646   0.64238   0.00000  Uiso   1.00
C1743  C     0.33566   0.91867   0.65974   0.00000  Uiso   1.00
C1744  C     0.32848   0.93104   0.64297   0.00000  Uiso   1.00
C1745  C     0.32841   0.93108   0.60864   0.00000  Uiso   1.00
C1746  C     0.33551   0.91874   0.59129   0.00000  Uiso   1.00
Si84   Si    0.33555   0.91856   0.70568   0.00000  Uiso   1.00
C1747  C     0.37281   0.99141   0.74476   0.00000  Uiso   1.00
C1748  C     0.35834   0.97405   0.76497   0.00000  Uiso   1.00
C1749  C     0.34722   0.95253   0.75315   0.00000  Uiso   1.00
C1750  C     0.35021   0.94780   0.72117   0.00000  Uiso   1.00
C1751  C     0.36456   0.96493   0.70103   0.00000  Uiso   1.00
C1752  C     0.37581   0.98653   0.71256   0.00000  Uiso   1.00
C1753  C     0.35021   0.90426   0.72074   0.00000  Uiso   1.00
C1754  C     0.33867   0.88218   0.73020   0.00000  Uiso   1.00
C1755  C     0.34957   0.87171   0.74160   0.00000  Uiso   1.00
C1756  C     0.37240   0.88326   0.74373   0.00000  Uiso   1.00
C1757  C     0.38393   0.90551   0.73406   0.00000  Uiso   1.00
C1758  C     0.37286   0.91580   0.72267   0.00000  Uiso   1.00
C1759  C     0.30262   0.89837   0.75384   0.00000  Uiso   1.00
C1760  C     0.28149   0.88805   0.76569   0.00000  Uiso   1.00
C1761  C     0.26396   0.88287   0.74463   0.00000  Uiso   1.00
C1762  C     0.26827   0.88823   0.71147   0.00000  Uiso   1.00
C1763  C     0.28947   0.89853   0.69993   0.00000  Uiso   1.00
C1764  C     0.30680   0.90382   0.72100   0.00000  Uiso   1.00
H1153  H     0.37544   0.93448   0.50677   0.00000  Uiso   1.00
H1154  H     0.32528   0.87246   0.54668   0.00000  Uiso   1.00
H1155  H     0.34477   0.85365   0.52617   0.00000  Uiso   1.00
H1156  H     0.39507   0.91598   0.48571   0.00000  Uiso   1.00
H1157  H     0.29169   0.89692   0.57920   0.00000  Uiso   1.00
H1158  H     0.25361   0.87776   0.55913   0.00000  Uiso   1.00
H1159  H     0.27735   0.88731   0.45925   0.00000  Uiso   1.00
H1160  H     0.31530   0.90611   0.47992   0.00000  Uiso   1.00
H1161  H     0.34876   0.89682   0.59441   0.00000  Uiso   1.00
H1162  H     0.34877   0.89664   0.65560   0.00000  Uiso   1.00
H1163  H     0.32279   0.94093   0.65670   0.00000  Uiso   1.00
H1164  H     0.32265   0.94099   0.59537   0.00000  Uiso   1.00
H1165  H     0.35584   0.97745   0.79053   0.00000  Uiso   1.00
H1166  H     0.33589   0.93897   0.76937   0.00000  Uiso   1.00
H1167  H     0.36700   0.96128   0.67550   0.00000  Uiso   1.00
H1168  H     0.38700   0.99995   0.69609   0.00000  Uiso   1.00
H1169  H     0.32063   0.87292   0.72871   0.00000  Uiso   1.00
H1170  H     0.34012   0.85421   0.74931   0.00000  Uiso   1.00
H1171  H     0.40194   0.91491   0.73524   0.00000  Uiso   1.00
H1172  H     0.38210   0.93337   0.71503   0.00000  Uiso   1.00
H1173  H     0.31633   0.90236   0.77071   0.00000  Uiso   1.00
H1174  H     0.27856   0.88409   0.79195   0.00000  Uiso   1.00
H1175  H     0.25473   0.88409   0.69429   0.00000  Uiso   1.00
H1176  H     0.29263   0.90258   0.67367   0.00000  Uiso   1.00
C1765  C     0.63442   0.51378   0.25698   0.00000  Uiso   1.00
C1766  C     0.65514   0.52907   0.24499   0.00000  Uiso   1.00
C1767  C     0.66601   0.55059   0.25679   0.00000  Uiso   1.00
C1768  C     0.65648   0.55737   0.28059   0.00000  Uiso   1.00
C1769  C     0.63597   0.54224   0.29276   0.00000  Uiso   1.00
C1770  C     0.62498   0.52068   0.28113   0.00000  Uiso   1.00
H1177  H     0.66298   0.52393   0.22621   0.00000  Uiso   1.00
H1178  H     0.68240   0.56252   0.24723   0.00000  Uiso   1.00
H1179  H     0.62836   0.54757   0.31174   0.00000  Uiso   1.00
H1180  H     0.60861   0.50896   0.29078   0.00000  Uiso   1.00
C1771  C     0.63632   0.58904   0.26161   0.00000  Uiso   1.00
C1772  C     0.65557   0.60131   0.27895   0.00000  Uiso   1.00
C1773  C     0.66455   0.62383   0.28481   0.00000  Uiso   1.00
C1774  C     0.65361   0.63536   0.27299   0.00000  Uiso   1.00
C1775  C     0.63453   0.62206   0.25607   0.00000  Uiso   1.00
C1776  C     0.62469   0.59969   0.24909   0.00000  Uiso   1.00
Si85   Si    0.67053   0.58657   0.29564   0.00000  Uiso   1.00
C1777  C     0.69926   0.60126   0.28079   0.00000  Uiso   1.00
C1778  C     0.71497   0.59793   0.29595   0.00000  Uiso   1.00
C1779  C     0.73613   0.60816   0.28428   0.00000  Uiso   1.00
C1780  C     0.74207   0.62208   0.25700   0.00000  Uiso   1.00
C1781  C     0.72617   0.62540   0.24189   0.00000  Uiso   1.00
C1782  C     0.70506   0.61510   0.25376   0.00000  Uiso   1.00
C1783  C     0.66520   0.60056   0.35877   0.00000  Uiso   1.00
C1784  C     0.66500   0.60039   0.39308   0.00000  Uiso   1.00
C1785  C     0.66950   0.58596   0.40998   0.00000  Uiso   1.00
C1786  C     0.67413   0.57166   0.39270   0.00000  Uiso   1.00
C1787  C     0.67432   0.57182   0.35839   0.00000  Uiso   1.00
C1788  C     0.66994   0.58634   0.34145   0.00000  Uiso   1.00
Si86   Si    0.66925   0.58592   0.45590   0.00000  Uiso   1.00
C1789  C     0.63162   0.51362   0.49559   0.00000  Uiso   1.00
C1790  C     0.64639   0.53118   0.51549   0.00000  Uiso   1.00
C1791  C     0.65746   0.55255   0.50343   0.00000  Uiso   1.00
C1792  C     0.65412   0.55687   0.47150   0.00000  Uiso   1.00
C1793  C     0.63943   0.53953   0.45167   0.00000  Uiso   1.00
C1794  C     0.62824   0.51810   0.46347   0.00000  Uiso   1.00
C1795  C     0.65494   0.60090   0.47051   0.00000  Uiso   1.00
C1796  C     0.66668   0.62348   0.47727   0.00000  Uiso   1.00
C1797  C     0.65591   0.63475   0.48816   0.00000  Uiso   1.00
C1798  C     0.63300   0.62299   0.49198   0.00000  Uiso   1.00
C1799  C     0.62118   0.60004   0.48483   0.00000  Uiso   1.00
C1800  C     0.63241   0.58919   0.47417   0.00000  Uiso   1.00
C1801  C     0.70278   0.60977   0.50252   0.00000  Uiso   1.00
C1802  C     0.72391   0.62002   0.51441   0.00000  Uiso   1.00
C1803  C     0.74068   0.62031   0.49574   0.00000  Uiso   1.00
C1804  C     0.73553   0.60992   0.46499   0.00000  Uiso   1.00
C1805  C     0.71434   0.59977   0.45336   0.00000  Uiso   1.00
C1806  C     0.69784   0.59967   0.47191   0.00000  Uiso   1.00
H1181  H     0.62981   0.57117   0.25723   0.00000  Uiso   1.00
H1182  H     0.68003   0.63301   0.29847   0.00000  Uiso   1.00
H1183  H     0.66005   0.65333   0.27718   0.00000  Uiso   1.00
H1184  H     0.60923   0.59062   0.23509   0.00000  Uiso   1.00
H1185  H     0.71047   0.58693   0.31743   0.00000  Uiso   1.00
H1186  H     0.74830   0.60515   0.29648   0.00000  Uiso   1.00
H1187  H     0.73049   0.63646   0.22055   0.00000  Uiso   1.00
H1188  H     0.69268   0.61790   0.24165   0.00000  Uiso   1.00
H1189  H     0.66149   0.61208   0.34556   0.00000  Uiso   1.00
H1190  H     0.66120   0.61181   0.40668   0.00000  Uiso   1.00
H1191  H     0.67765   0.56002   0.40601   0.00000  Uiso   1.00
H1192  H     0.67795   0.56027   0.34478   0.00000  Uiso   1.00
H1193  H     0.64916   0.52808   0.54100   0.00000  Uiso   1.00
H1194  H     0.66906   0.56633   0.51936   0.00000  Uiso   1.00
H1195  H     0.63669   0.54289   0.42623   0.00000  Uiso   1.00
H1196  H     0.61677   0.50449   0.44729   0.00000  Uiso   1.00
H1197  H     0.68461   0.63269   0.47413   0.00000  Uiso   1.00
H1198  H     0.66536   0.65271   0.49367   0.00000  Uiso   1.00
H1199  H     0.60323   0.59064   0.48763   0.00000  Uiso   1.00
H1200  H     0.62320   0.57121   0.46864   0.00000  Uiso   1.00
H1201  H     0.68970   0.60970   0.51748   0.00000  Uiso   1.00
H1202  H     0.72750   0.62818   0.53863   0.00000  Uiso   1.00
H1203  H     0.74835   0.60966   0.44990   0.00000  Uiso   1.00
H1204  H     0.71052   0.59165   0.42904   0.00000  Uiso   1.00
C1807  C     0.88427   0.51384   0.25694   0.00000  Uiso   1.00
C1808  C     0.90494   0.52917   0.24489   0.00000  Uiso   1.00
C1809  C     0.91575   0.55072   0.25664   0.00000  Uiso   1.00
C1810  C     0.90621   0.55745   0.28042   0.00000  Uiso   1.00
C1811  C     0.88578   0.54230   0.29268   0.00000  Uiso   1.00
C1812  C     0.87483   0.52071   0.28112   0.00000  Uiso   1.00
H1205  H     0.91281   0.52407   0.22610   0.00000  Uiso   1.00
H1206  H     0.93211   0.56269   0.24703   0.00000  Uiso   1.00
H1207  H     0.87818   0.54761   0.31168   0.00000  Uiso   1.00
H1208  H     0.85849   0.50896   0.29084   0.00000  Uiso   1.00
C1813  C     0.88600   0.58897   0.26270   0.00000  Uiso   1.00
C1814  C     0.90568   0.60098   0.27927   0.00000  Uiso   1.00
C1815  C     0.91447   0.62365   0.28388   0.00000  Uiso   1.00
C1816  C     0.90373   0.63425   0.27233   0.00000  Uiso   1.00
C1817  C     0.88379   0.62220   0.25580   0.00000  Uiso   1.00
C1818  C     0.87507   0.59936   0.25110   0.00000  Uiso   1.00
Si87   Si    0.92022   0.58679   0.29537   0.00000  Uiso   1.00
C1819  C     0.94907   0.60148   0.28054   0.00000  Uiso   1.00
C1820  C     0.96471   0.59814   0.29579   0.00000  Uiso   1.00
C1821  C     0.98589   0.60831   0.28419   0.00000  Uiso   1.00
C1822  C     0.99187   0.62218   0.25687   0.00000  Uiso   1.00
C1823  C     0.97602   0.62552   0.24166   0.00000  Uiso   1.00
C1824  C     0.95490   0.61525   0.25349   0.00000  Uiso   1.00
C1825  C     0.91498   0.60073   0.35866   0.00000  Uiso   1.00
C1826  C     0.91482   0.60053   0.39299   0.00000  Uiso   1.00
C1827  C     0.91932   0.58609   0.40980   0.00000  Uiso   1.00
C1828  C     0.92392   0.57179   0.39245   0.00000  Uiso   1.00
C1829  C     0.92405   0.57198   0.35812   0.00000  Uiso   1.00
C1830  C     0.91967   0.58652   0.34131   0.00000  Uiso   1.00
Si88   Si    0.91912   0.58601   0.45575   0.00000  Uiso   1.00
C1831  C     0.88154   0.51370   0.49549   0.00000  Uiso   1.00
C1832  C     0.89634   0.53127   0.51536   0.00000  Uiso   1.00
C1833  C     0.90740   0.55264   0.50328   0.00000  Uiso   1.00
C1834  C     0.90404   0.55695   0.47136   0.00000  Uiso   1.00
C1835  C     0.88932   0.53961   0.45157   0.00000  Uiso   1.00
C1836  C     0.87813   0.51818   0.46339   0.00000  Uiso   1.00
C1837  C     0.90477   0.60083   0.47033   0.00000  Uiso   1.00
C1838  C     0.91623   0.62347   0.47689   0.00000  Uiso   1.00
C1839  C     0.90545   0.63420   0.48795   0.00000  Uiso   1.00
C1840  C     0.88278   0.62239   0.49259   0.00000  Uiso   1.00
C1841  C     0.87132   0.59959   0.48560   0.00000  Uiso   1.00
C1842  C     0.88228   0.58903   0.47462   0.00000  Uiso   1.00
C1843  C     0.95265   0.60998   0.50234   0.00000  Uiso   1.00
C1844  C     0.97376   0.62018   0.51428   0.00000  Uiso   1.00
C1845  C     0.99053   0.62041   0.49566   0.00000  Uiso   1.00
C1846  C     0.98539   0.61001   0.46492   0.00000  Uiso   1.00
C1847  C     0.96422   0.59990   0.45324   0.00000  Uiso   1.00
C1848  C     0.94772   0.59985   0.47174   0.00000  Uiso   1.00
H1209  H     0.87900   0.57094   0.25866   0.00000  Uiso   1.00
H1210  H     0.93019   0.63331   0.29698   0.00000  Uiso   1.00
H1211  H     0.91089   0.65225   0.27650   0.00000  Uiso   1.00
H1212  H     0.85949   0.58954   0.23784   0.00000  Uiso   1.00
H1213  H     0.96016   0.58717   0.31732   0.00000  Uiso   1.00
H1214  H     0.99803   0.60528   0.29647   0.00000  Uiso   1.00
H1215  H     0.98037   0.63654   0.22028   0.00000  Uiso   1.00
H1216  H     0.94253   0.61804   0.24131   0.00000  Uiso   1.00
H1217  H     0.91128   0.61228   0.34549   0.00000  Uiso   1.00
H1218  H     0.91104   0.61195   0.40666   0.00000  Uiso   1.00
H1219  H     0.92744   0.56013   0.40569   0.00000  Uiso   1.00
H1220  H     0.92764   0.56043   0.34443   0.00000  Uiso   1.00
H1221  H     0.89914   0.52818   0.54085   0.00000  Uiso   1.00
H1222  H     0.91903   0.56642   0.51918   0.00000  Uiso   1.00
H1223  H     0.88656   0.54296   0.42613   0.00000  Uiso   1.00
H1224  H     0.86665   0.50457   0.44721   0.00000  Uiso   1.00
H1225  H     0.93414   0.63296   0.47338   0.00000  Uiso   1.00
H1226  H     0.91489   0.65215   0.49341   0.00000  Uiso   1.00
H1227  H     0.85342   0.58993   0.48865   0.00000  Uiso   1.00
H1228  H     0.87306   0.57103   0.46919   0.00000  Uiso   1.00
H1229  H     0.93957   0.60996   0.51724   0.00000  Uiso   1.00
H1230  H     0.97736   0.62835   0.53849   0.00000  Uiso   1.00
H1231  H     0.99821   0.60971   0.44988   0.00000  Uiso   1.00
H1232  H     0.96040   0.59177   0.42893   0.00000  Uiso   1.00
C1849  C     0.87020   0.74144   0.00787   0.00000  Uiso   1.00
C1850  C     0.84918   0.72623   0.99671   0.00000  Uiso   1.00
C1851  C     0.83842   0.70478   0.00850   0.00000  Uiso   1.00
C1852  C     0.84838   0.69798   0.03127   0.00000  Uiso   1.00
C1853  C     0.86910   0.71308   0.04277   0.00000  Uiso   1.00
C1854  C     0.88000   0.73459   0.03125   0.00000  Uiso   1.00
H1233  H     0.84101   0.73135   0.97863   0.00000  Uiso   1.00
H1234  H     0.82176   0.69296   0.99966   0.00000  Uiso   1.00
H1235  H     0.87701   0.70777   0.06111   0.00000  Uiso   1.00
H1236  H     0.89658   0.74628   0.04036   0.00000  Uiso   1.00
C1855  C     0.86885   0.66652   0.01115   0.00000  Uiso   1.00
C1856  C     0.84944   0.65462   0.02832   0.00000  Uiso   1.00
C1857  C     0.84089   0.63204   0.03323   0.00000  Uiso   1.00
C1858  C     0.85169   0.62147   0.02160   0.00000  Uiso   1.00
C1859  C     0.87140   0.63339   0.00453   0.00000  Uiso   1.00
C1860  C     0.87980   0.65612   0.99939   0.00000  Uiso   1.00
Si89   Si    0.83485   0.66858   0.04539   0.00000  Uiso   1.00
C1861  C     0.80595   0.65298   0.03072   0.00000  Uiso   1.00
C1862  C     0.78861   0.64485   0.05256   0.00000  Uiso   1.00
C1863  C     0.76732   0.63412   0.04131   0.00000  Uiso   1.00
C1864  C     0.76292   0.63122   0.00768   0.00000  Uiso   1.00
C1865  C     0.78052   0.63924   0.98583   0.00000  Uiso   1.00
C1866  C     0.80173   0.64989   0.99738   0.00000  Uiso   1.00
C1867  C     0.84304   0.65655   0.10808   0.00000  Uiso   1.00
C1868  C     0.84308   0.65646   0.14240   0.00000  Uiso   1.00
C1869  C     0.83584   0.66866   0.15977   0.00000  Uiso   1.00
C1870  C     0.82867   0.68104   0.14302   0.00000  Uiso   1.00
C1871  C     0.82860   0.68110   0.10868   0.00000  Uiso   1.00
C1872  C     0.83569   0.66875   0.09132   0.00000  Uiso   1.00
Si90   Si    0.83572   0.66855   0.20571   0.00000  Uiso   1.00
C1873  C     0.87287   0.74141   0.24474   0.00000  Uiso   1.00
C1874  C     0.85842   0.72405   0.26495   0.00000  Uiso   1.00
C1875  C     0.84736   0.70251   0.25316   0.00000  Uiso   1.00
C1876  C     0.85038   0.69779   0.22119   0.00000  Uiso   1.00
C1877  C     0.86471   0.71493   0.20104   0.00000  Uiso   1.00
C1878  C     0.87589   0.73654   0.21255   0.00000  Uiso   1.00
C1879  C     0.85033   0.65420   0.22078   0.00000  Uiso   1.00
C1880  C     0.83875   0.63211   0.23020   0.00000  Uiso   1.00
C1881  C     0.84959   0.62159   0.24162   0.00000  Uiso   1.00
C1882  C     0.87242   0.63310   0.24381   0.00000  Uiso   1.00
C1883  C     0.88400   0.65535   0.23417   0.00000  Uiso   1.00
C1884  C     0.87298   0.66569   0.22276   0.00000  Uiso   1.00
C1885  C     0.80282   0.64838   0.25391   0.00000  Uiso   1.00
C1886  C     0.78169   0.63802   0.26578   0.00000  Uiso   1.00
C1887  C     0.76415   0.63282   0.24475   0.00000  Uiso   1.00
C1888  C     0.76844   0.63821   0.21160   0.00000  Uiso   1.00
C1889  C     0.78964   0.64855   0.20004   0.00000  Uiso   1.00
C1890  C     0.80698   0.65384   0.22107   0.00000  Uiso   1.00
H1237  H     0.87562   0.68445   0.00680   0.00000  Uiso   1.00
H1238  H     0.82535   0.62248   0.04671   0.00000  Uiso   1.00
H1239  H     0.84475   0.60357   0.02614   0.00000  Uiso   1.00
H1240  H     0.89515   0.66585   0.98567   0.00000  Uiso   1.00
H1241  H     0.79186   0.64697   0.07917   0.00000  Uiso   1.00
H1242  H     0.75377   0.62770   0.05907   0.00000  Uiso   1.00
H1243  H     0.77755   0.63727   0.95922   0.00000  Uiso   1.00
H1244  H     0.81550   0.65618   0.97991   0.00000  Uiso   1.00
H1245  H     0.84894   0.64683   0.09442   0.00000  Uiso   1.00
H1246  H     0.84894   0.64663   0.15560   0.00000  Uiso   1.00
H1247  H     0.82299   0.69093   0.15676   0.00000  Uiso   1.00
H1248  H     0.82285   0.69101   0.09543   0.00000  Uiso   1.00
H1249  H     0.85590   0.72744   0.29051   0.00000  Uiso   1.00
H1250  H     0.83604   0.68895   0.26939   0.00000  Uiso   1.00
H1251  H     0.86717   0.71128   0.17552   0.00000  Uiso   1.00
H1252  H     0.88707   0.74996   0.19607   0.00000  Uiso   1.00
H1253  H     0.82070   0.62288   0.22867   0.00000  Uiso   1.00
H1254  H     0.84010   0.60409   0.24930   0.00000  Uiso   1.00
H1255  H     0.90201   0.66471   0.23539   0.00000  Uiso   1.00
H1256  H     0.88227   0.68326   0.21515   0.00000  Uiso   1.00
H1257  H     0.81654   0.65238   0.27076   0.00000  Uiso   1.00
H1258  H     0.77877   0.63404   0.29204   0.00000  Uiso   1.00
H1259  H     0.75488   0.63407   0.19444   0.00000  Uiso   1.00
H1260  H     0.79278   0.65262   0.17378   0.00000  Uiso   1.00
C1891  C     0.63529   0.76448   0.25820   0.00000  Uiso   1.00
C1892  C     0.65574   0.77802   0.24519   0.00000  Uiso   1.00
C1893  C     0.66647   0.80068   0.25736   0.00000  Uiso   1.00
C1894  C     0.65607   0.80697   0.28016   0.00000  Uiso   1.00
C1895  C     0.63552   0.79234   0.29233   0.00000  Uiso   1.00
C1896  C     0.62395   0.76951   0.28088   0.00000  Uiso   1.00
H1261  H     0.66333   0.77209   0.22697   0.00000  Uiso   1.00
H1262  H     0.68288   0.81287   0.24845   0.00000  Uiso   1.00
H1263  H     0.62794   0.79808   0.31062   0.00000  Uiso   1.00
H1264  H     0.60741   0.75717   0.28963   0.00000  Uiso   1.00
C1897  C     0.63624   0.83932   0.26272   0.00000  Uiso   1.00
C1898  C     0.65592   0.85138   0.27937   0.00000  Uiso   1.00
C1899  C     0.66465   0.87408   0.28398   0.00000  Uiso   1.00
C1900  C     0.65386   0.88460   0.27239   0.00000  Uiso   1.00
C1901  C     0.63394   0.87251   0.25582   0.00000  Uiso   1.00
C1902  C     0.62528   0.84967   0.25111   0.00000  Uiso   1.00
Si91   Si    0.67047   0.83732   0.29548   0.00000  Uiso   1.00
C1903  C     0.69921   0.85191   0.28067   0.00000  Uiso   1.00
C1904  C     0.71485   0.84852   0.29593   0.00000  Uiso   1.00
C1905  C     0.73601   0.85861   0.28429   0.00000  Uiso   1.00
C1906  C     0.74203   0.87246   0.25693   0.00000  Uiso   1.00
C1907  C     0.72621   0.87587   0.24172   0.00000  Uiso   1.00
C1908  C     0.70510   0.86570   0.25357   0.00000  Uiso   1.00
C1909  C     0.66528   0.85126   0.35876   0.00000  Uiso   1.00
C1910  C     0.66514   0.85102   0.39307   0.00000  Uiso   1.00
C1911  C     0.66965   0.83654   0.40981   0.00000  Uiso   1.00
C1912  C     0.67426   0.82228   0.39238   0.00000  Uiso   1.00
C1913  C     0.67436   0.82248   0.35807   0.00000  Uiso   1.00
C1914  C     0.66995   0.83705   0.34129   0.00000  Uiso   1.00
Si92   Si    0.66931   0.83627   0.45573   0.00000  Uiso   1.00
C1915  C     0.63108   0.76348   0.49537   0.00000  Uiso   1.00
C1916  C     0.64546   0.78115   0.51593   0.00000  Uiso   1.00
C1917  C     0.65695   0.80289   0.50345   0.00000  Uiso   1.00
C1918  C     0.65416   0.80705   0.47118   0.00000  Uiso   1.00
C1919  C     0.64000   0.78979   0.45082   0.00000  Uiso   1.00
C1920  C     0.62837   0.76787   0.46258   0.00000  Uiso   1.00
C1921  C     0.65493   0.85104   0.47039   0.00000  Uiso   1.00
C1922  C     0.66636   0.87367   0.47700   0.00000  Uiso   1.00
C1923  C     0.65555   0.88438   0.48804   0.00000  Uiso   1.00
C1924  C     0.63287   0.87254   0.49262   0.00000  Uiso   1.00
C1925  C     0.62144   0.84975   0.48560   0.00000  Uiso   1.00
C1926  C     0.63243   0.83922   0.47462   0.00000  Uiso   1.00
C1927  C     0.70286   0.86027   0.50234   0.00000  Uiso   1.00
C1928  C     0.72397   0.87045   0.51427   0.00000  Uiso   1.00
C1929  C     0.74072   0.87062   0.49567   0.00000  Uiso   1.00
C1930  C     0.73556   0.86022   0.46493   0.00000  Uiso   1.00
C1931  C     0.71438   0.85014   0.45326   0.00000  Uiso   1.00
C1932  C     0.69790   0.85011   0.47177   0.00000  Uiso   1.00
H1265  H     0.62928   0.82130   0.25866   0.00000  Uiso   1.00
H1266  H     0.68035   0.88378   0.29711   0.00000  Uiso   1.00
H1267  H     0.66096   0.90260   0.27655   0.00000  Uiso   1.00
H1268  H     0.60972   0.83982   0.23781   0.00000  Uiso   1.00
H1269  H     0.71029   0.83757   0.31748   0.00000  Uiso   1.00
H1270  H     0.74811   0.85553   0.29657   0.00000  Uiso   1.00
H1271  H     0.73059   0.88687   0.22033   0.00000  Uiso   1.00
H1272  H     0.69277   0.86855   0.24137   0.00000  Uiso   1.00
H1273  H     0.66157   0.86283   0.34567   0.00000  Uiso   1.00
H1274  H     0.66136   0.86241   0.40680   0.00000  Uiso   1.00
H1275  H     0.67782   0.81062   0.40556   0.00000  Uiso   1.00
H1276  H     0.67792   0.81094   0.34433   0.00000  Uiso   1.00
H1277  H     0.64773   0.77797   0.54166   0.00000  Uiso   1.00
H1278  H     0.66825   0.81675   0.51948   0.00000  Uiso   1.00
H1279  H     0.63781   0.79325   0.42519   0.00000  Uiso   1.00
H1280  H     0.61719   0.75419   0.44621   0.00000  Uiso   1.00
H1281  H     0.68427   0.88319   0.47354   0.00000  Uiso   1.00
H1282  H     0.66496   0.90232   0.49353   0.00000  Uiso   1.00
H1283  H     0.60354   0.84007   0.48860   0.00000  Uiso   1.00
H1284  H     0.62324   0.82122   0.46916   0.00000  Uiso   1.00
H1285  H     0.68980   0.86029   0.51724   0.00000  Uiso   1.00
H1286  H     0.72759   0.87863   0.53847   0.00000  Uiso   1.00
H1287  H     0.74836   0.85988   0.44989   0.00000  Uiso   1.00
H1288  H     0.71055   0.84199   0.42896   0.00000  Uiso   1.00
C1933  C     0.62015   0.99145   0.00784   0.00000  Uiso   1.00
C1934  C     0.59913   0.97625   0.99668   0.00000  Uiso   1.00
C1935  C     0.58836   0.95480   0.00847   0.00000  Uiso   1.00
C1936  C     0.59830   0.94800   0.03126   0.00000  Uiso   1.00
C1937  C     0.61902   0.96309   0.04278   0.00000  Uiso   1.00
C1938  C     0.62993   0.98460   0.03125   0.00000  Uiso   1.00
H1289  H     0.59097   0.98137   0.97858   0.00000  Uiso   1.00
H1290  H     0.57170   0.94299   0.99962   0.00000  Uiso   1.00
H1291  H     0.62691   0.95778   0.06114   0.00000  Uiso   1.00
H1292  H     0.64652   0.99628   0.04037   0.00000  Uiso   1.00
C1939  C     0.61885   0.91664   0.01113   0.00000  Uiso   1.00
C1940  C     0.59945   0.90470   0.02830   0.00000  Uiso   1.00
C1941  C     0.59096   0.88213   0.03320   0.00000  Uiso   1.00
C1942  C     0.60182   0.87161   0.02156   0.00000  Uiso   1.00
C1943  C     0.62152   0.88359   0.00450   0.00000  Uiso   1.00
C1944  C     0.62985   0.90630   0.99936   0.00000  Uiso   1.00
Si93   Si    0.58479   0.91859   0.04538   0.00000  Uiso   1.00
C1945  C     0.55589   0.90294   0.03075   0.00000  Uiso   1.00
C1946  C     0.53855   0.89485   0.05259   0.00000  Uiso   1.00
C1947  C     0.51726   0.88426   0.04133   0.00000  Uiso   1.00
C1948  C     0.51287   0.88146   0.00770   0.00000  Uiso   1.00
C1949  C     0.53046   0.88940   0.98585   0.00000  Uiso   1.00
C1950  C     0.55167   0.89991   0.99740   0.00000  Uiso   1.00
C1951  C     0.59299   0.90660   0.10808   0.00000  Uiso   1.00
C1952  C     0.59301   0.90651   0.14240   0.00000  Uiso   1.00
C1953  C     0.58576   0.91870   0.15975   0.00000  Uiso   1.00
C1954  C     0.57859   0.93108   0.14298   0.00000  Uiso   1.00
C1955  C     0.57854   0.93114   0.10865   0.00000  Uiso   1.00
C1956  C     0.58564   0.91879   0.09130   0.00000  Uiso   1.00
Si94   Si    0.58562   0.91858   0.20569   0.00000  Uiso   1.00
C1957  C     0.62284   0.99144   0.24477   0.00000  Uiso   1.00
C1958  C     0.60837   0.97407   0.26497   0.00000  Uiso   1.00
C1959  C     0.59727   0.95254   0.25316   0.00000  Uiso   1.00
C1960  C     0.60027   0.94782   0.22118   0.00000  Uiso   1.00
C1961  C     0.61461   0.96496   0.20104   0.00000  Uiso   1.00
C1962  C     0.62584   0.98656   0.21257   0.00000  Uiso   1.00
C1963  C     0.60031   0.90430   0.22073   0.00000  Uiso   1.00
C1964  C     0.58878   0.88222   0.23020   0.00000  Uiso   1.00
C1965  C     0.59968   0.87177   0.24165   0.00000  Uiso   1.00
C1966  C     0.62252   0.88334   0.24380   0.00000  Uiso   1.00
C1967  C     0.63403   0.90557   0.23410   0.00000  Uiso   1.00
C1968  C     0.62296   0.91585   0.22267   0.00000  Uiso   1.00
C1969  C     0.55268   0.89839   0.25384   0.00000  Uiso   1.00
C1970  C     0.53156   0.88816   0.26572   0.00000  Uiso   1.00
C1971  C     0.51404   0.88303   0.24468   0.00000  Uiso   1.00
C1972  C     0.51835   0.88833   0.21151   0.00000  Uiso   1.00
C1973  C     0.53954   0.89854   0.19994   0.00000  Uiso   1.00
C1974  C     0.55687   0.90381   0.22099   0.00000  Uiso   1.00
H1293  H     0.62556   0.93457   0.00678   0.00000  Uiso   1.00
H1294  H     0.57543   0.87253   0.04668   0.00000  Uiso   1.00
H1295  H     0.59493   0.85372   0.02609   0.00000  Uiso   1.00
H1296  H     0.64520   0.91607   0.98564   0.00000  Uiso   1.00
H1297  H     0.54179   0.89690   0.07920   0.00000  Uiso   1.00
H1298  H     0.50371   0.87787   0.05909   0.00000  Uiso   1.00
H1299  H     0.52749   0.88749   0.95924   0.00000  Uiso   1.00
H1300  H     0.56544   0.90614   0.97994   0.00000  Uiso   1.00
H1301  H     0.59889   0.89687   0.09443   0.00000  Uiso   1.00
H1302  H     0.59887   0.89668   0.15562   0.00000  Uiso   1.00
H1303  H     0.57290   0.94097   0.15671   0.00000  Uiso   1.00
H1304  H     0.57279   0.94105   0.09538   0.00000  Uiso   1.00
H1305  H     0.60586   0.97746   0.29054   0.00000  Uiso   1.00
H1306  H     0.58593   0.93898   0.26938   0.00000  Uiso   1.00
H1307  H     0.61705   0.96131   0.17552   0.00000  Uiso   1.00
H1308  H     0.63704   0.99998   0.19610   0.00000  Uiso   1.00
H1309  H     0.57074   0.87295   0.22870   0.00000  Uiso   1.00
H1310  H     0.59024   0.85427   0.24937   0.00000  Uiso   1.00
H1311  H     0.65205   0.91498   0.23530   0.00000  Uiso   1.00
H1312  H     0.63220   0.93341   0.21501   0.00000  Uiso   1.00
H1313  H     0.56639   0.90235   0.27070   0.00000  Uiso   1.00
H1314  H     0.52863   0.88424   0.29199   0.00000  Uiso   1.00
H1315  H     0.50480   0.88421   0.19433   0.00000  Uiso   1.00
H1316  H     0.54269   0.90253   0.17366   0.00000  Uiso   1.00
C1975  C     0.88432   0.76390   0.25694   0.00000  Uiso   1.00
C1976  C     0.90500   0.77923   0.24489   0.00000  Uiso   1.00
C1977  C     0.91581   0.80077   0.25665   0.00000  Uiso   1.00
C1978  C     0.90627   0.80750   0.28043   0.00000  Uiso   1.00
C1979  C     0.88584   0.79235   0.29268   0.00000  Uiso   1.00
C1980  C     0.87488   0.77076   0.28111   0.00000  Uiso   1.00
H1317  H     0.91286   0.77413   0.22610   0.00000  Uiso   1.00
H1318  H     0.93217   0.81275   0.24704   0.00000  Uiso   1.00
H1319  H     0.87823   0.79767   0.31168   0.00000  Uiso   1.00
H1320  H     0.85854   0.75902   0.29083   0.00000  Uiso   1.00
C1981  C     0.88605   0.83900   0.26271   0.00000  Uiso   1.00
C1982  C     0.90573   0.85102   0.27927   0.00000  Uiso   1.00
C1983  C     0.91451   0.87369   0.28388   0.00000  Uiso   1.00
C1984  C     0.90376   0.88428   0.27233   0.00000  Uiso   1.00
C1985  C     0.88382   0.87222   0.25580   0.00000  Uiso   1.00
C1986  C     0.87511   0.84938   0.25111   0.00000  Uiso   1.00
Si95   Si    0.92028   0.83684   0.29537   0.00000  Uiso   1.00
C1987  C     0.94913   0.85153   0.28054   0.00000  Uiso   1.00
C1988  C     0.96476   0.84818   0.29579   0.00000  Uiso   1.00
C1989  C     0.98594   0.85834   0.28419   0.00000  Uiso   1.00
C1990  C     0.99193   0.87220   0.25686   0.00000  Uiso   1.00
C1991  C     0.97609   0.87555   0.24165   0.00000  Uiso   1.00
C1992  C     0.95496   0.86530   0.25349   0.00000  Uiso   1.00
C1993  C     0.91502   0.85077   0.35866   0.00000  Uiso   1.00
C1994  C     0.91486   0.85057   0.39299   0.00000  Uiso   1.00
C1995  C     0.91937   0.83613   0.40980   0.00000  Uiso   1.00
C1996  C     0.92396   0.82183   0.39246   0.00000  Uiso   1.00
C1997  C     0.92410   0.82202   0.35813   0.00000  Uiso   1.00
C1998  C     0.91972   0.83656   0.34132   0.00000  Uiso   1.00
Si96   Si    0.91917   0.83606   0.45575   0.00000  Uiso   1.00
C1999  C     0.88159   0.76376   0.49549   0.00000  Uiso   1.00
C2000  C     0.89638   0.78133   0.51537   0.00000  Uiso   1.00
C2001  C     0.90745   0.80270   0.50329   0.00000  Uiso   1.00
C2002  C     0.90409   0.80700   0.47136   0.00000  Uiso   1.00
C2003  C     0.88936   0.78966   0.45158   0.00000  Uiso   1.00
C2004  C     0.87818   0.76824   0.46339   0.00000  Uiso   1.00
C2005  C     0.90481   0.85086   0.47033   0.00000  Uiso   1.00
C2006  C     0.91626   0.87350   0.47690   0.00000  Uiso   1.00
C2007  C     0.90547   0.88423   0.48795   0.00000  Uiso   1.00
C2008  C     0.88280   0.87240   0.49259   0.00000  Uiso   1.00
C2009  C     0.87134   0.84960   0.48560   0.00000  Uiso   1.00
C2010  C     0.88232   0.83906   0.47461   0.00000  Uiso   1.00
C2011  C     0.95271   0.86003   0.50234   0.00000  Uiso   1.00
C2012  C     0.97382   0.87021   0.51428   0.00000  Uiso   1.00
C2013  C     0.99059   0.87043   0.49567   0.00000  Uiso   1.00
C2014  C     0.98544   0.86004   0.46492   0.00000  Uiso   1.00
C2015  C     0.96427   0.84994   0.45324   0.00000  Uiso   1.00
C2016  C     0.94777   0.84990   0.47175   0.00000  Uiso   1.00
H1321  H     0.87906   0.82098   0.25867   0.00000  Uiso   1.00
H1322  H     0.93023   0.88336   0.29698   0.00000  Uiso   1.00
H1323  H     0.91091   0.90228   0.27650   0.00000  Uiso   1.00
H1324  H     0.85953   0.83955   0.23785   0.00000  Uiso   1.00
H1325  H     0.96021   0.83721   0.31733   0.00000  Uiso   1.00
H1326  H     0.99807   0.85530   0.29647   0.00000  Uiso   1.00
H1327  H     0.98044   0.88657   0.22027   0.00000  Uiso   1.00
H1328  H     0.94260   0.86810   0.24130   0.00000  Uiso   1.00
H1329  H     0.91131   0.86231   0.34549   0.00000  Uiso   1.00
H1330  H     0.91107   0.86198   0.40666   0.00000  Uiso   1.00
H1331  H     0.92749   0.81018   0.40570   0.00000  Uiso   1.00
H1332  H     0.92769   0.81047   0.34444   0.00000  Uiso   1.00
H1333  H     0.89918   0.77824   0.54086   0.00000  Uiso   1.00
H1334  H     0.91907   0.81648   0.51919   0.00000  Uiso   1.00
H1335  H     0.88660   0.79301   0.42614   0.00000  Uiso   1.00
H1336  H     0.86670   0.75462   0.44722   0.00000  Uiso   1.00
H1337  H     0.93417   0.88301   0.47339   0.00000  Uiso   1.00
H1338  H     0.91490   0.90217   0.49342   0.00000  Uiso   1.00
H1339  H     0.85344   0.83994   0.48864   0.00000  Uiso   1.00
H1340  H     0.87311   0.82105   0.46917   0.00000  Uiso   1.00
H1341  H     0.93964   0.86002   0.51724   0.00000  Uiso   1.00
H1342  H     0.97742   0.87838   0.53850   0.00000  Uiso   1.00
H1343  H     0.99825   0.85973   0.44987   0.00000  Uiso   1.00
H1344  H     0.96045   0.84181   0.42892   0.00000  Uiso   1.00
C2017  C     0.87018   0.99142   0.00786   0.00000  Uiso   1.00
C2018  C     0.84916   0.97620   0.99670   0.00000  Uiso   1.00
C2019  C     0.83841   0.95475   0.00849   0.00000  Uiso   1.00
C2020  C     0.84836   0.94796   0.03127   0.00000  Uiso   1.00
C2021  C     0.86908   0.96306   0.04277   0.00000  Uiso   1.00
C2022  C     0.87998   0.98458   0.03125   0.00000  Uiso   1.00
H1345  H     0.84098   0.98130   0.97862   0.00000  Uiso   1.00
H1346  H     0.82175   0.94292   0.99965   0.00000  Uiso   1.00
H1347  H     0.87700   0.95776   0.06112   0.00000  Uiso   1.00
H1348  H     0.89656   0.99627   0.04036   0.00000  Uiso   1.00
C2023  C     0.86887   0.91652   0.01116   0.00000  Uiso   1.00
C2024  C     0.84945   0.90461   0.02834   0.00000  Uiso   1.00
C2025  C     0.84091   0.88204   0.03324   0.00000  Uiso   1.00
C2026  C     0.85171   0.87147   0.02160   0.00000  Uiso   1.00
C2027  C     0.87142   0.88340   0.00453   0.00000  Uiso   1.00
C2028  C     0.87981   0.90613   0.99939   0.00000  Uiso   1.00
Si97   Si    0.83485   0.91856   0.04542   0.00000  Uiso   1.00
C2029  C     0.80595   0.90292   0.03078   0.00000  Uiso   1.00
C2030  C     0.78861   0.89484   0.05261   0.00000  Uiso   1.00
C2031  C     0.76732   0.88426   0.04135   0.00000  Uiso   1.00
C2032  C     0.76293   0.88147   0.00772   0.00000  Uiso   1.00
C2033  C     0.78053   0.88940   0.98587   0.00000  Uiso   1.00
C2034  C     0.80174   0.89989   0.99743   0.00000  Uiso   1.00
C2035  C     0.84307   0.90655   0.10810   0.00000  Uiso   1.00
C2036  C     0.84310   0.90645   0.14242   0.00000  Uiso   1.00
C2037  C     0.83585   0.91864   0.15979   0.00000  Uiso   1.00
C2038  C     0.82869   0.93103   0.14304   0.00000  Uiso   1.00
C2039  C     0.82862   0.93109   0.10870   0.00000  Uiso   1.00
C2040  C     0.83571   0.91875   0.09134   0.00000  Uiso   1.00
Si98   Si    0.83570   0.91851   0.20573   0.00000  Uiso   1.00
C2041  C     0.87284   0.99139   0.24476   0.00000  Uiso   1.00
C2042  C     0.85839   0.97402   0.26497   0.00000  Uiso   1.00
C2043  C     0.84733   0.95249   0.25318   0.00000  Uiso   1.00
C2044  C     0.85035   0.94776   0.22121   0.00000  Uiso   1.00
C2045  C     0.86468   0.96490   0.20107   0.00000  Uiso   1.00
C2046  C     0.87587   0.98651   0.21258   0.00000  Uiso   1.00
C2047  C     0.85033   0.90418   0.22079   0.00000  Uiso   1.00
C2048  C     0.83876   0.88209   0.23021   0.00000  Uiso   1.00
C2049  C     0.84961   0.87158   0.24162   0.00000  Uiso   1.00
C2050  C     0.87244   0.88310   0.24381   0.00000  Uiso   1.00
C2051  C     0.88401   0.90535   0.23416   0.00000  Uiso   1.00
C2052  C     0.87298   0.91568   0.22276   0.00000  Uiso   1.00
C2053  C     0.80275   0.89836   0.25386   0.00000  Uiso   1.00
C2054  C     0.78163   0.88815   0.26572   0.00000  Uiso   1.00
C2055  C     0.76411   0.88303   0.24468   0.00000  Uiso   1.00
C2056  C     0.76843   0.88833   0.21151   0.00000  Uiso   1.00
C2057  C     0.78962   0.89853   0.19995   0.00000  Uiso   1.00
C2058  C     0.80694   0.90377   0.22101   0.00000  Uiso   1.00
H1349  H     0.87562   0.93445   0.00683   0.00000  Uiso   1.00
H1350  H     0.82538   0.87247   0.04673   0.00000  Uiso   1.00
H1351  H     0.84478   0.85357   0.02613   0.00000  Uiso   1.00
H1352  H     0.89516   0.91586   0.98567   0.00000  Uiso   1.00
H1353  H     0.79185   0.89689   0.07922   0.00000  Uiso   1.00
H1354  H     0.75377   0.87789   0.05910   0.00000  Uiso   1.00
H1355  H     0.77756   0.88749   0.95925   0.00000  Uiso   1.00
H1356  H     0.81551   0.90611   0.97997   0.00000  Uiso   1.00
H1357  H     0.84897   0.89682   0.09444   0.00000  Uiso   1.00
H1358  H     0.84897   0.89662   0.15563   0.00000  Uiso   1.00
H1359  H     0.82300   0.94092   0.15677   0.00000  Uiso   1.00
H1360  H     0.82287   0.94101   0.09544   0.00000  Uiso   1.00
H1361  H     0.85586   0.97742   0.29052   0.00000  Uiso   1.00
H1362  H     0.83601   0.93892   0.26940   0.00000  Uiso   1.00
H1363  H     0.86714   0.96125   0.17555   0.00000  Uiso   1.00
H1364  H     0.88705   0.99993   0.19610   0.00000  Uiso   1.00
H1365  H     0.82071   0.87286   0.22868   0.00000  Uiso   1.00
H1366  H     0.84013   0.85408   0.24930   0.00000  Uiso   1.00
H1367  H     0.90202   0.91472   0.23538   0.00000  Uiso   1.00
H1368  H     0.88226   0.93326   0.21515   0.00000  Uiso   1.00
H1369  H     0.81645   0.90230   0.27072   0.00000  Uiso   1.00
H1370  H     0.77869   0.88423   0.29200   0.00000  Uiso   1.00
H1371  H     0.75489   0.88423   0.19433   0.00000  Uiso   1.00
H1372  H     0.79278   0.90252   0.17367   0.00000  Uiso   1.00
C2059  C     0.63437   0.51380   0.75693   0.00000  Uiso   1.00
C2060  C     0.65507   0.52910   0.74493   0.00000  Uiso   1.00
C2061  C     0.66590   0.55064   0.75671   0.00000  Uiso   1.00
C2062  C     0.65636   0.55739   0.78046   0.00000  Uiso   1.00
C2063  C     0.63590   0.54226   0.79266   0.00000  Uiso   1.00
C2064  C     0.62493   0.52068   0.78107   0.00000  Uiso   1.00
H1373  H     0.66293   0.52398   0.72615   0.00000  Uiso   1.00
H1374  H     0.68227   0.56259   0.74713   0.00000  Uiso   1.00
H1375  H     0.62829   0.54760   0.81163   0.00000  Uiso   1.00
H1376  H     0.60856   0.50895   0.79075   0.00000  Uiso   1.00
C2065  C     0.63652   0.58907   0.76187   0.00000  Uiso   1.00
C2066  C     0.65584   0.60101   0.77932   0.00000  Uiso   1.00
C2067  C     0.66449   0.62357   0.78490   0.00000  Uiso   1.00
C2068  C     0.65367   0.63455   0.77328   0.00000  Uiso   1.00
C2069  C     0.63394   0.62252   0.75565   0.00000  Uiso   1.00
C2070  C     0.62536   0.59962   0.74988   0.00000  Uiso   1.00
Si99   Si    0.67039   0.58671   0.79547   0.00000  Uiso   1.00
C2071  C     0.69923   0.60139   0.78061   0.00000  Uiso   1.00
C2072  C     0.71487   0.59802   0.79579   0.00000  Uiso   1.00
C2073  C     0.73605   0.60822   0.78417   0.00000  Uiso   1.00
C2074  C     0.74203   0.62214   0.75690   0.00000  Uiso   1.00
C2075  C     0.72617   0.62549   0.74175   0.00000  Uiso   1.00
C2076  C     0.70505   0.61520   0.75361   0.00000  Uiso   1.00
C2077  C     0.66517   0.60057   0.85884   0.00000  Uiso   1.00
C2078  C     0.66503   0.60035   0.89315   0.00000  Uiso   1.00
C2079  C     0.66957   0.58589   0.90992   0.00000  Uiso   1.00
C2080  C     0.67416   0.57160   0.89245   0.00000  Uiso   1.00
C2081  C     0.67427   0.57184   0.85814   0.00000  Uiso   1.00
C2082  C     0.66987   0.58639   0.84139   0.00000  Uiso   1.00
Si100  Si    0.66939   0.58577   0.95574   0.00000  Uiso   1.00
C2083  C     0.63166   0.51359   0.99551   0.00000  Uiso   1.00
C2084  C     0.64645   0.53117   0.01541   0.00000  Uiso   1.00
C2085  C     0.65755   0.55252   0.00334   0.00000  Uiso   1.00
C2086  C     0.65424   0.55684   0.97134   0.00000  Uiso   1.00
C2087  C     0.63950   0.53946   0.95152   0.00000  Uiso   1.00
C2088  C     0.62829   0.51806   0.96337   0.00000  Uiso   1.00
C2089  C     0.65470   0.60123   0.97082   0.00000  Uiso   1.00
C2090  C     0.66679   0.62378   0.97739   0.00000  Uiso   1.00
C2091  C     0.65591   0.63560   0.98855   0.00000  Uiso   1.00
C2092  C     0.63355   0.62254   0.99129   0.00000  Uiso   1.00
C2093  C     0.62043   0.60016   0.98505   0.00000  Uiso   1.00
C2094  C     0.63221   0.58919   0.97424   0.00000  Uiso   1.00
C2095  C     0.70280   0.60969   0.00235   0.00000  Uiso   1.00
C2096  C     0.72392   0.61996   0.01425   0.00000  Uiso   1.00
C2097  C     0.74072   0.62026   0.99562   0.00000  Uiso   1.00
C2098  C     0.73560   0.60984   0.96487   0.00000  Uiso   1.00
C2099  C     0.71444   0.59966   0.95319   0.00000  Uiso   1.00
C2100  C     0.69787   0.59955   0.97171   0.00000  Uiso   1.00
H1377  H     0.62982   0.57115   0.75729   0.00000  Uiso   1.00
H1378  H     0.67998   0.63298   0.79860   0.00000  Uiso   1.00
H1379  H     0.66060   0.65250   0.77793   0.00000  Uiso   1.00
H1380  H     0.60998   0.59000   0.73602   0.00000  Uiso   1.00
H1381  H     0.71034   0.58702   0.81728   0.00000  Uiso   1.00
H1382  H     0.74820   0.60518   0.79641   0.00000  Uiso   1.00
H1383  H     0.73051   0.63654   0.72042   0.00000  Uiso   1.00
H1384  H     0.69268   0.61801   0.74148   0.00000  Uiso   1.00
H1385  H     0.66144   0.61212   0.84573   0.00000  Uiso   1.00
H1386  H     0.66126   0.61176   0.90686   0.00000  Uiso   1.00
H1387  H     0.67770   0.55993   0.90561   0.00000  Uiso   1.00
H1388  H     0.67786   0.56031   0.84438   0.00000  Uiso   1.00
H1389  H     0.64920   0.52807   0.04093   0.00000  Uiso   1.00
H1390  H     0.66915   0.56630   0.01926   0.00000  Uiso   1.00
H1391  H     0.63677   0.54279   0.92606   0.00000  Uiso   1.00
H1392  H     0.61682   0.50443   0.94721   0.00000  Uiso   1.00
H1393  H     0.68467   0.63275   0.97415   0.00000  Uiso   1.00
H1394  H     0.66482   0.65359   0.99436   0.00000  Uiso   1.00
H1395  H     0.60244   0.59131   0.98807   0.00000  Uiso   1.00
H1396  H     0.62325   0.57126   0.96871   0.00000  Uiso   1.00
H1397  H     0.68971   0.60962   0.01727   0.00000  Uiso   1.00
H1398  H     0.72750   0.62814   0.03846   0.00000  Uiso   1.00
H1399  H     0.74845   0.60960   0.94983   0.00000  Uiso   1.00
H1400  H     0.71065   0.59152   0.92889   0.00000  Uiso   1.00
C2101  C     0.88427   0.51384   0.75694   0.00000  Uiso   1.00
C2102  C     0.90494   0.52917   0.74489   0.00000  Uiso   1.00
C2103  C     0.91575   0.55072   0.75664   0.00000  Uiso   1.00
C2104  C     0.90621   0.55745   0.78042   0.00000  Uiso   1.00
C2105  C     0.88579   0.54230   0.79268   0.00000  Uiso   1.00
C2106  C     0.87483   0.52071   0.78111   0.00000  Uiso   1.00
H1401  H     0.91281   0.52407   0.72609   0.00000  Uiso   1.00
H1402  H     0.93211   0.56269   0.74702   0.00000  Uiso   1.00
H1403  H     0.87818   0.54761   0.81168   0.00000  Uiso   1.00
H1404  H     0.85849   0.50896   0.79084   0.00000  Uiso   1.00
C2107  C     0.88600   0.58898   0.76269   0.00000  Uiso   1.00
C2108  C     0.90569   0.60098   0.77926   0.00000  Uiso   1.00
C2109  C     0.91447   0.62366   0.78388   0.00000  Uiso   1.00
C2110  C     0.90373   0.63425   0.77233   0.00000  Uiso   1.00
C2111  C     0.88379   0.62220   0.75580   0.00000  Uiso   1.00
C2112  C     0.87507   0.59936   0.75110   0.00000  Uiso   1.00
Si101  Si    0.92022   0.58679   0.79536   0.00000  Uiso   1.00
C2113  C     0.94907   0.60148   0.78053   0.00000  Uiso   1.00
C2114  C     0.96471   0.59814   0.79579   0.00000  Uiso   1.00
C2115  C     0.98589   0.60831   0.78419   0.00000  Uiso   1.00
C2116  C     0.99187   0.62218   0.75686   0.00000  Uiso   1.00
C2117  C     0.97603   0.62552   0.74165   0.00000  Uiso   1.00
C2118  C     0.95490   0.61526   0.75349   0.00000  Uiso   1.00
C2119  C     0.91498   0.60073   0.85866   0.00000  Uiso   1.00
C2120  C     0.91482   0.60053   0.89299   0.00000  Uiso   1.00
C2121  C     0.91932   0.58609   0.90980   0.00000  Uiso   1.00
C2122  C     0.92392   0.57179   0.89245   0.00000  Uiso   1.00
C2123  C     0.92405   0.57198   0.85812   0.00000  Uiso   1.00
C2124  C     0.91967   0.58652   0.84131   0.00000  Uiso   1.00
Si102  Si    0.91912   0.58600   0.95575   0.00000  Uiso   1.00
C2125  C     0.88154   0.51370   0.99548   0.00000  Uiso   1.00
C2126  C     0.89634   0.53127   0.01535   0.00000  Uiso   1.00
C2127  C     0.90740   0.55264   0.00328   0.00000  Uiso   1.00
C2128  C     0.90404   0.55695   0.97136   0.00000  Uiso   1.00
C2129  C     0.88932   0.53961   0.95157   0.00000  Uiso   1.00
C2130  C     0.87813   0.51818   0.96338   0.00000  Uiso   1.00
C2131  C     0.90477   0.60082   0.97032   0.00000  Uiso   1.00
C2132  C     0.91623   0.62346   0.97688   0.00000  Uiso   1.00
C2133  C     0.90546   0.63420   0.98794   0.00000  Uiso   1.00
C2134  C     0.88279   0.62239   0.99259   0.00000  Uiso   1.00
C2135  C     0.87132   0.59959   0.98560   0.00000  Uiso   1.00
C2136  C     0.88228   0.58903   0.97461   0.00000  Uiso   1.00
C2137  C     0.95265   0.60997   0.00233   0.00000  Uiso   1.00
C2138  C     0.97376   0.62017   0.01427   0.00000  Uiso   1.00
C2139  C     0.99053   0.62041   0.99566   0.00000  Uiso   1.00
C2140  C     0.98539   0.61001   0.96492   0.00000  Uiso   1.00
C2141  C     0.96422   0.59990   0.95324   0.00000  Uiso   1.00
C2142  C     0.94772   0.59984   0.97174   0.00000  Uiso   1.00
H1405  H     0.87900   0.57095   0.75865   0.00000  Uiso   1.00
H1406  H     0.93019   0.63332   0.79697   0.00000  Uiso   1.00
H1407  H     0.91088   0.65225   0.77650   0.00000  Uiso   1.00
H1408  H     0.85949   0.58954   0.73784   0.00000  Uiso   1.00
H1409  H     0.96016   0.58717   0.81731   0.00000  Uiso   1.00
H1410  H     0.99803   0.60528   0.79647   0.00000  Uiso   1.00
H1411  H     0.98037   0.63654   0.72028   0.00000  Uiso   1.00
H1412  H     0.94253   0.61805   0.74130   0.00000  Uiso   1.00
H1413  H     0.91128   0.61228   0.84549   0.00000  Uiso   1.00
H1414  H     0.91103   0.61195   0.90666   0.00000  Uiso   1.00
H1415  H     0.92744   0.56013   0.90569   0.00000  Uiso   1.00
H1416  H     0.92764   0.56043   0.84443   0.00000  Uiso   1.00
H1417  H     0.89914   0.52818   0.04085   0.00000  Uiso   1.00
H1418  H     0.91903   0.56642   0.01918   0.00000  Uiso   1.00
H1419  H     0.88655   0.54296   0.92613   0.00000  Uiso   1.00
H1420  H     0.86665   0.50457   0.94721   0.00000  Uiso   1.00
H1421  H     0.93414   0.63296   0.97337   0.00000  Uiso   1.00
H1422  H     0.91490   0.65215   0.99340   0.00000  Uiso   1.00
H1423  H     0.85342   0.58993   0.98865   0.00000  Uiso   1.00
H1424  H     0.87306   0.57103   0.96918   0.00000  Uiso   1.00
H1425  H     0.93957   0.60996   0.01723   0.00000  Uiso   1.00
H1426  H     0.97735   0.62835   0.03849   0.00000  Uiso   1.00
H1427  H     0.99821   0.60971   0.94988   0.00000  Uiso   1.00
H1428  H     0.96040   0.59176   0.92893   0.00000  Uiso   1.00
C2143  C     0.87019   0.74143   0.50787   0.00000  Uiso   1.00
C2144  C     0.84917   0.72621   0.49671   0.00000  Uiso   1.00
C2145  C     0.83841   0.70477   0.50849   0.00000  Uiso   1.00
C2146  C     0.84836   0.69797   0.53127   0.00000  Uiso   1.00
C2147  C     0.86909   0.71307   0.54277   0.00000  Uiso   1.00
C2148  C     0.87998   0.73458   0.53125   0.00000  Uiso   1.00
H1429  H     0.84099   0.73133   0.47862   0.00000  Uiso   1.00
H1430  H     0.82175   0.69294   0.49965   0.00000  Uiso   1.00
H1431  H     0.87700   0.70776   0.56112   0.00000  Uiso   1.00
H1432  H     0.89657   0.74627   0.54036   0.00000  Uiso   1.00
C2149  C     0.86885   0.66651   0.51115   0.00000  Uiso   1.00
C2150  C     0.84943   0.65461   0.52832   0.00000  Uiso   1.00
C2151  C     0.84088   0.63204   0.53323   0.00000  Uiso   1.00
C2152  C     0.85168   0.62146   0.52160   0.00000  Uiso   1.00
C2153  C     0.87139   0.63339   0.50453   0.00000  Uiso   1.00
C2154  C     0.87979   0.65612   0.49939   0.00000  Uiso   1.00
Si103  Si    0.83483   0.66856   0.54539   0.00000  Uiso   1.00
C2155  C     0.80593   0.65296   0.53076   0.00000  Uiso   1.00
C2156  C     0.78861   0.64484   0.55262   0.00000  Uiso   1.00
C2157  C     0.76731   0.63413   0.54140   0.00000  Uiso   1.00
C2158  C     0.76289   0.63124   0.50777   0.00000  Uiso   1.00
C2159  C     0.78048   0.63925   0.48590   0.00000  Uiso   1.00
C2160  C     0.80170   0.64988   0.49741   0.00000  Uiso   1.00
C2161  C     0.84304   0.65654   0.60808   0.00000  Uiso   1.00
C2162  C     0.84307   0.65645   0.64240   0.00000  Uiso   1.00
C2163  C     0.83583   0.66865   0.65977   0.00000  Uiso   1.00
C2164  C     0.82866   0.68103   0.64302   0.00000  Uiso   1.00
C2165  C     0.82860   0.68109   0.60868   0.00000  Uiso   1.00
C2166  C     0.83568   0.66875   0.59132   0.00000  Uiso   1.00
Si104  Si    0.83571   0.66853   0.70571   0.00000  Uiso   1.00
C2167  C     0.87286   0.74140   0.74475   0.00000  Uiso   1.00
C2168  C     0.85841   0.72404   0.76495   0.00000  Uiso   1.00
C2169  C     0.84735   0.70250   0.75316   0.00000  Uiso   1.00
C2170  C     0.85036   0.69777   0.72119   0.00000  Uiso   1.00
C2171  C     0.86469   0.71492   0.70104   0.00000  Uiso   1.00
C2172  C     0.87588   0.73652   0.71255   0.00000  Uiso   1.00
C2173  C     0.85032   0.65419   0.72078   0.00000  Uiso   1.00
C2174  C     0.83874   0.63210   0.73020   0.00000  Uiso   1.00
C2175  C     0.84959   0.62159   0.74162   0.00000  Uiso   1.00
C2176  C     0.87242   0.63309   0.74381   0.00000  Uiso   1.00
C2177  C     0.88399   0.65534   0.73417   0.00000  Uiso   1.00
C2178  C     0.87297   0.66568   0.72276   0.00000  Uiso   1.00
C2179  C     0.80278   0.64837   0.75388   0.00000  Uiso   1.00
C2180  C     0.78165   0.63803   0.76572   0.00000  Uiso   1.00
C2181  C     0.76412   0.63285   0.74467   0.00000  Uiso   1.00
C2182  C     0.76843   0.63823   0.71152   0.00000  Uiso   1.00
C2183  C     0.78964   0.64855   0.69998   0.00000  Uiso   1.00
C2184  C     0.80696   0.65382   0.72104   0.00000  Uiso   1.00
H1433  H     0.87561   0.68444   0.50681   0.00000  Uiso   1.00
H1434  H     0.82535   0.62247   0.54671   0.00000  Uiso   1.00
H1435  H     0.84475   0.60356   0.52614   0.00000  Uiso   1.00
H1436  H     0.89515   0.66585   0.48567   0.00000  Uiso   1.00
H1437  H     0.79187   0.64696   0.57922   0.00000  Uiso   1.00
H1438  H     0.75378   0.62772   0.55918   0.00000  Uiso   1.00
H1439  H     0.77749   0.63729   0.45929   0.00000  Uiso   1.00
H1440  H     0.81546   0.65616   0.47993   0.00000  Uiso   1.00
H1441  H     0.84893   0.64682   0.59442   0.00000  Uiso   1.00
H1442  H     0.84894   0.64662   0.65560   0.00000  Uiso   1.00
H1443  H     0.82298   0.69092   0.65676   0.00000  Uiso   1.00
H1444  H     0.82285   0.69101   0.59543   0.00000  Uiso   1.00
H1445  H     0.85588   0.72743   0.79051   0.00000  Uiso   1.00
H1446  H     0.83603   0.68894   0.76939   0.00000  Uiso   1.00
H1447  H     0.86715   0.71127   0.67553   0.00000  Uiso   1.00
H1448  H     0.88706   0.74995   0.69608   0.00000  Uiso   1.00
H1449  H     0.82070   0.62288   0.72868   0.00000  Uiso   1.00
H1450  H     0.84010   0.60408   0.74930   0.00000  Uiso   1.00
H1451  H     0.90200   0.66471   0.73539   0.00000  Uiso   1.00
H1452  H     0.88226   0.68326   0.71515   0.00000  Uiso   1.00
H1453  H     0.81650   0.65236   0.77074   0.00000  Uiso   1.00
H1454  H     0.77872   0.63407   0.79198   0.00000  Uiso   1.00
H1455  H     0.75489   0.63410   0.69434   0.00000  Uiso   1.00
H1456  H     0.79279   0.65260   0.67372   0.00000  Uiso   1.00
C2185  C     0.63465   0.76351   0.75733   0.00000  Uiso   1.00
C2186  C     0.65571   0.77882   0.74576   0.00000  Uiso   1.00
C2187  C     0.66638   0.80085   0.75754   0.00000  Uiso   1.00
C2188  C     0.65632   0.80755   0.78046   0.00000  Uiso   1.00
C2189  C     0.63570   0.79257   0.79222   0.00000  Uiso   1.00
C2190  C     0.62460   0.77047   0.78075   0.00000  Uiso   1.00
H1457  H     0.66379   0.77357   0.72751   0.00000  Uiso   1.00
H1458  H     0.68285   0.81288   0.74846   0.00000  Uiso   1.00
H1459  H     0.62790   0.79808   0.81059   0.00000  Uiso   1.00
H1460  H     0.60812   0.75865   0.79004   0.00000  Uiso   1.00
C2191  C     0.63613   0.83920   0.76254   0.00000  Uiso   1.00
C2192  C     0.65580   0.85121   0.77915   0.00000  Uiso   1.00
C2193  C     0.66456   0.87388   0.78378   0.00000  Uiso   1.00
C2194  C     0.65380   0.88446   0.77224   0.00000  Uiso   1.00
C2195  C     0.63387   0.87241   0.75570   0.00000  Uiso   1.00
C2196  C     0.62518   0.84958   0.75096   0.00000  Uiso   1.00
Si105  Si    0.67032   0.83703   0.79532   0.00000  Uiso   1.00
C2197  C     0.69918   0.85175   0.78053   0.00000  Uiso   1.00
C2198  C     0.71480   0.84840   0.79581   0.00000  Uiso   1.00
C2199  C     0.73598   0.85853   0.78422   0.00000  Uiso   1.00
C2200  C     0.74200   0.87238   0.75687   0.00000  Uiso   1.00
C2201  C     0.72618   0.87576   0.74166   0.00000  Uiso   1.00
C2202  C     0.70505   0.86554   0.75349   0.00000  Uiso   1.00
C2203  C     0.66523   0.85118   0.85856   0.00000  Uiso   1.00
C2204  C     0.66518   0.85109   0.89287   0.00000  Uiso   1.00
C2205  C     0.66974   0.83669   0.90976   0.00000  Uiso   1.00
C2206  C     0.67432   0.82235   0.89241   0.00000  Uiso   1.00
C2207  C     0.67433   0.82243   0.85810   0.00000  Uiso   1.00
C2208  C     0.66987   0.83690   0.84124   0.00000  Uiso   1.00
Si106  Si    0.66946   0.83655   0.95558   0.00000  Uiso   1.00
C2209  C     0.63155   0.76445   0.99464   0.00000  Uiso   1.00
C2210  C     0.64512   0.78041   0.01683   0.00000  Uiso   1.00
C2211  C     0.65686   0.80270   0.00369   0.00000  Uiso   1.00
C2212  C     0.65382   0.80644   0.97142   0.00000  Uiso   1.00
C2213  C     0.63980   0.78953   0.95057   0.00000  Uiso   1.00
C2214  C     0.62773   0.76688   0.96229   0.00000  Uiso   1.00
C2215  C     0.65509   0.85121   0.97025   0.00000  Uiso   1.00
C2216  C     0.66650   0.87388   0.97689   0.00000  Uiso   1.00
C2217  C     0.65565   0.88453   0.98796   0.00000  Uiso   1.00
C2218  C     0.63297   0.87265   0.99256   0.00000  Uiso   1.00
C2219  C     0.62156   0.84985   0.98552   0.00000  Uiso   1.00
C2220  C     0.63256   0.83935   0.97452   0.00000  Uiso   1.00
C2221  C     0.70289   0.86038   0.00228   0.00000  Uiso   1.00
C2222  C     0.72399   0.87052   0.01422   0.00000  Uiso   1.00
C2223  C     0.74075   0.87069   0.99562   0.00000  Uiso   1.00
C2224  C     0.73559   0.86030   0.96485   0.00000  Uiso   1.00
C2225  C     0.71444   0.85025   0.95314   0.00000  Uiso   1.00
C2226  C     0.69792   0.85024   0.97164   0.00000  Uiso   1.00
H1461  H     0.62915   0.82118   0.75845   0.00000  Uiso   1.00
H1462  H     0.68027   0.88355   0.79689   0.00000  Uiso   1.00
H1463  H     0.66094   0.90246   0.77644   0.00000  Uiso   1.00
H1464  H     0.60961   0.83975   0.73768   0.00000  Uiso   1.00
H1465  H     0.71023   0.83743   0.81734   0.00000  Uiso   1.00
H1466  H     0.74810   0.85547   0.79652   0.00000  Uiso   1.00
H1467  H     0.73055   0.88677   0.72028   0.00000  Uiso   1.00
H1468  H     0.69271   0.86835   0.74128   0.00000  Uiso   1.00
H1469  H     0.66148   0.86267   0.84536   0.00000  Uiso   1.00
H1470  H     0.66142   0.86254   0.90649   0.00000  Uiso   1.00
H1471  H     0.67791   0.81075   0.90567   0.00000  Uiso   1.00
H1472  H     0.67788   0.81084   0.84444   0.00000  Uiso   1.00
H1473  H     0.64693   0.77653   0.04249   0.00000  Uiso   1.00
H1474  H     0.66820   0.81667   0.01942   0.00000  Uiso   1.00
H1475  H     0.63778   0.79326   0.92507   0.00000  Uiso   1.00
H1476  H     0.61640   0.75272   0.94658   0.00000  Uiso   1.00
H1477  H     0.68441   0.88343   0.97342   0.00000  Uiso   1.00
H1478  H     0.66503   0.90247   0.99347   0.00000  Uiso   1.00
H1479  H     0.60366   0.84015   0.98855   0.00000  Uiso   1.00
H1480  H     0.62338   0.82135   0.96905   0.00000  Uiso   1.00
H1481  H     0.68983   0.86042   0.01718   0.00000  Uiso   1.00
H1482  H     0.72761   0.87868   0.03844   0.00000  Uiso   1.00
H1483  H     0.74840   0.85996   0.94983   0.00000  Uiso   1.00
H1484  H     0.71063   0.84214   0.92882   0.00000  Uiso   1.00
C2227  C     0.62016   0.99145   0.50784   0.00000  Uiso   1.00
C2228  C     0.59914   0.97625   0.49668   0.00000  Uiso   1.00
C2229  C     0.58836   0.95480   0.50847   0.00000  Uiso   1.00
C2230  C     0.59830   0.94800   0.53126   0.00000  Uiso   1.00
C2231  C     0.61903   0.96309   0.54277   0.00000  Uiso   1.00
C2232  C     0.62994   0.98460   0.53125   0.00000  Uiso   1.00
H1485  H     0.59098   0.98137   0.47858   0.00000  Uiso   1.00
H1486  H     0.57171   0.94299   0.49962   0.00000  Uiso   1.00
H1487  H     0.62692   0.95778   0.56113   0.00000  Uiso   1.00
H1488  H     0.64652   0.99628   0.54037   0.00000  Uiso   1.00
C2233  C     0.61882   0.91659   0.51113   0.00000  Uiso   1.00
C2234  C     0.59941   0.90467   0.52831   0.00000  Uiso   1.00
C2235  C     0.59091   0.88210   0.53323   0.00000  Uiso   1.00
C2236  C     0.60174   0.87156   0.52161   0.00000  Uiso   1.00
C2237  C     0.62145   0.88351   0.50454   0.00000  Uiso   1.00
C2238  C     0.62980   0.90623   0.49938   0.00000  Uiso   1.00
Si107  Si    0.58479   0.91859   0.54539   0.00000  Uiso   1.00
C2239  C     0.55589   0.90295   0.53076   0.00000  Uiso   1.00
C2240  C     0.53855   0.89485   0.55261   0.00000  Uiso   1.00
C2241  C     0.51726   0.88423   0.54136   0.00000  Uiso   1.00
C2242  C     0.51286   0.88143   0.50773   0.00000  Uiso   1.00
C2243  C     0.53045   0.88938   0.48588   0.00000  Uiso   1.00
C2244  C     0.55167   0.89991   0.49741   0.00000  Uiso   1.00
C2245  C     0.59299   0.90660   0.60808   0.00000  Uiso   1.00
C2246  C     0.59300   0.90651   0.64240   0.00000  Uiso   1.00
C2247  C     0.58576   0.91870   0.65975   0.00000  Uiso   1.00
C2248  C     0.57859   0.93109   0.64299   0.00000  Uiso   1.00
C2249  C     0.57854   0.93114   0.60865   0.00000  Uiso   1.00
C2250  C     0.58563   0.91880   0.59131   0.00000  Uiso   1.00
Si108  Si    0.58562   0.91858   0.70569   0.00000  Uiso   1.00
C2251  C     0.62284   0.99144   0.74477   0.00000  Uiso   1.00
C2252  C     0.60838   0.97408   0.76497   0.00000  Uiso   1.00
C2253  C     0.59728   0.95255   0.75316   0.00000  Uiso   1.00
C2254  C     0.60027   0.94782   0.72118   0.00000  Uiso   1.00
C2255  C     0.61462   0.96496   0.70104   0.00000  Uiso   1.00
C2256  C     0.62584   0.98656   0.71257   0.00000  Uiso   1.00
C2257  C     0.60028   0.90429   0.72075   0.00000  Uiso   1.00
C2258  C     0.58874   0.88220   0.73020   0.00000  Uiso   1.00
C2259  C     0.59963   0.87173   0.74160   0.00000  Uiso   1.00
C2260  C     0.62246   0.88327   0.74374   0.00000  Uiso   1.00
C2261  C     0.63399   0.90552   0.73407   0.00000  Uiso   1.00
C2262  C     0.62293   0.91582   0.72268   0.00000  Uiso   1.00
C2263  C     0.55268   0.89840   0.75384   0.00000  Uiso   1.00
C2264  C     0.53155   0.88814   0.76570   0.00000  Uiso   1.00
C2265  C     0.51402   0.88299   0.74465   0.00000  Uiso   1.00
C2266  C     0.51834   0.88830   0.71148   0.00000  Uiso   1.00
C2267  C     0.53954   0.89855   0.69993   0.00000  Uiso   1.00
C2268  C     0.55687   0.90382   0.72099   0.00000  Uiso   1.00
H1489  H     0.62555   0.93452   0.50677   0.00000  Uiso   1.00
H1490  H     0.57537   0.87251   0.54671   0.00000  Uiso   1.00
H1491  H     0.59483   0.85367   0.52615   0.00000  Uiso   1.00
H1492  H     0.64515   0.91599   0.48567   0.00000  Uiso   1.00
H1493  H     0.54180   0.89691   0.57922   0.00000  Uiso   1.00
H1494  H     0.50372   0.87784   0.55913   0.00000  Uiso   1.00
H1495  H     0.52748   0.88746   0.45926   0.00000  Uiso   1.00
H1496  H     0.56543   0.90616   0.47995   0.00000  Uiso   1.00
H1497  H     0.59889   0.89687   0.59444   0.00000  Uiso   1.00
H1498  H     0.59887   0.89668   0.65563   0.00000  Uiso   1.00
H1499  H     0.57290   0.94097   0.65671   0.00000  Uiso   1.00
H1500  H     0.57279   0.94105   0.59538   0.00000  Uiso   1.00
H1501  H     0.60587   0.97747   0.79054   0.00000  Uiso   1.00
H1502  H     0.58594   0.93899   0.76939   0.00000  Uiso   1.00
H1503  H     0.61706   0.96131   0.67552   0.00000  Uiso   1.00
H1504  H     0.63704   0.99998   0.69610   0.00000  Uiso   1.00
H1505  H     0.57070   0.87295   0.72871   0.00000  Uiso   1.00
H1506  H     0.59017   0.85423   0.74930   0.00000  Uiso   1.00
H1507  H     0.65201   0.91491   0.73526   0.00000  Uiso   1.00
H1508  H     0.63218   0.93338   0.71505   0.00000  Uiso   1.00
H1509  H     0.56638   0.90237   0.77071   0.00000  Uiso   1.00
H1510  H     0.52862   0.88421   0.79197   0.00000  Uiso   1.00
H1511  H     0.50480   0.88418   0.69429   0.00000  Uiso   1.00
H1512  H     0.54270   0.90255   0.67365   0.00000  Uiso   1.00
C2269  C     0.88431   0.76389   0.75694   0.00000  Uiso   1.00
C2270  C     0.90499   0.77922   0.74488   0.00000  Uiso   1.00
C2271  C     0.91580   0.80077   0.75664   0.00000  Uiso   1.00
C2272  C     0.90626   0.80750   0.78042   0.00000  Uiso   1.00
C2273  C     0.88583   0.79235   0.79267   0.00000  Uiso   1.00
C2274  C     0.87487   0.77076   0.78111   0.00000  Uiso   1.00
H1513  H     0.91285   0.77411   0.72609   0.00000  Uiso   1.00
H1514  H     0.93216   0.81274   0.74703   0.00000  Uiso   1.00
H1515  H     0.87823   0.79766   0.81168   0.00000  Uiso   1.00
H1516  H     0.85853   0.75901   0.79083   0.00000  Uiso   1.00
C2275  C     0.88604   0.83900   0.76270   0.00000  Uiso   1.00
C2276  C     0.90573   0.85102   0.77926   0.00000  Uiso   1.00
C2277  C     0.91450   0.87369   0.78387   0.00000  Uiso   1.00
C2278  C     0.90375   0.88427   0.77232   0.00000  Uiso   1.00
C2279  C     0.88381   0.87222   0.75580   0.00000  Uiso   1.00
C2280  C     0.87510   0.84938   0.75110   0.00000  Uiso   1.00
Si109  Si    0.92027   0.83684   0.79536   0.00000  Uiso   1.00
C2281  C     0.94912   0.85152   0.78053   0.00000  Uiso   1.00
C2282  C     0.96475   0.84818   0.79579   0.00000  Uiso   1.00
C2283  C     0.98594   0.85834   0.78418   0.00000  Uiso   1.00
C2284  C     0.99193   0.87220   0.75685   0.00000  Uiso   1.00
C2285  C     0.97609   0.87555   0.74164   0.00000  Uiso   1.00
C2286  C     0.95496   0.86530   0.75348   0.00000  Uiso   1.00
C2287  C     0.91502   0.85077   0.85865   0.00000  Uiso   1.00
C2288  C     0.91486   0.85057   0.89298   0.00000  Uiso   1.00
C2289  C     0.91937   0.83614   0.90979   0.00000  Uiso   1.00
C2290  C     0.92396   0.82184   0.89245   0.00000  Uiso   1.00
C2291  C     0.92410   0.82202   0.85812   0.00000  Uiso   1.00
C2292  C     0.91972   0.83656   0.84130   0.00000  Uiso   1.00
Si110  Si    0.91918   0.83606   0.95574   0.00000  Uiso   1.00
C2293  C     0.88161   0.76377   0.99550   0.00000  Uiso   1.00
C2294  C     0.89640   0.78135   0.01536   0.00000  Uiso   1.00
C2295  C     0.90745   0.80271   0.00328   0.00000  Uiso   1.00
C2296  C     0.90409   0.80701   0.97136   0.00000  Uiso   1.00
C2297  C     0.88937   0.78967   0.95157   0.00000  Uiso   1.00
C2298  C     0.87819   0.76824   0.96339   0.00000  Uiso   1.00
C2299  C     0.90482   0.85087   0.97031   0.00000  Uiso   1.00
C2300  C     0.91627   0.87351   0.97688   0.00000  Uiso   1.00
C2301  C     0.90548   0.88423   0.98795   0.00000  Uiso   1.00
C2302  C     0.88281   0.87240   0.99258   0.00000  Uiso   1.00
C2303  C     0.87135   0.84961   0.98559   0.00000  Uiso   1.00
C2304  C     0.88232   0.83906   0.97459   0.00000  Uiso   1.00
C2305  C     0.95271   0.86003   0.00233   0.00000  Uiso   1.00
C2306  C     0.97382   0.87021   0.01428   0.00000  Uiso   1.00
C2307  C     0.99059   0.87043   0.99567   0.00000  Uiso   1.00
C2308  C     0.98544   0.86004   0.96492   0.00000  Uiso   1.00
C2309  C     0.96427   0.84994   0.95323   0.00000  Uiso   1.00
C2310  C     0.94777   0.84990   0.97173   0.00000  Uiso   1.00
H1517  H     0.87905   0.82097   0.75866   0.00000  Uiso   1.00
H1518  H     0.93022   0.88336   0.79696   0.00000  Uiso   1.00
H1519  H     0.91090   0.90227   0.77649   0.00000  Uiso   1.00
H1520  H     0.85952   0.83955   0.73785   0.00000  Uiso   1.00
H1521  H     0.96020   0.83721   0.81732   0.00000  Uiso   1.00
H1522  H     0.99807   0.85530   0.79647   0.00000  Uiso   1.00
H1523  H     0.98044   0.88657   0.72026   0.00000  Uiso   1.00
H1524  H     0.94260   0.86809   0.74129   0.00000  Uiso   1.00
H1525  H     0.91131   0.86231   0.84548   0.00000  Uiso   1.00
H1526  H     0.91107   0.86199   0.90664   0.00000  Uiso   1.00
H1527  H     0.92749   0.81018   0.90569   0.00000  Uiso   1.00
H1528  H     0.92768   0.81047   0.84442   0.00000  Uiso   1.00
H1529  H     0.89919   0.77825   0.04086   0.00000  Uiso   1.00
H1530  H     0.91907   0.81649   0.01918   0.00000  Uiso   1.00
H1531  H     0.88660   0.79301   0.92613   0.00000  Uiso   1.00
H1532  H     0.86671   0.75462   0.94723   0.00000  Uiso   1.00
H1533  H     0.93418   0.88301   0.97338   0.00000  Uiso   1.00
H1534  H     0.91491   0.90218   0.99342   0.00000  Uiso   1.00
H1535  H     0.85345   0.83994   0.98863   0.00000  Uiso   1.00
H1536  H     0.87312   0.82106   0.96916   0.00000  Uiso   1.00
H1537  H     0.93964   0.86002   0.01723   0.00000  Uiso   1.00
H1538  H     0.97742   0.87838   0.03849   0.00000  Uiso   1.00
H1539  H     0.99826   0.85973   0.94987   0.00000  Uiso   1.00
H1540  H     0.96045   0.84182   0.92891   0.00000  Uiso   1.00
C2311  C     0.87017   0.99142   0.50786   0.00000  Uiso   1.00
C2312  C     0.84916   0.97620   0.49670   0.00000  Uiso   1.00
C2313  C     0.83840   0.95475   0.50849   0.00000  Uiso   1.00
C2314  C     0.84836   0.94796   0.53127   0.00000  Uiso   1.00
C2315  C     0.86908   0.96306   0.54277   0.00000  Uiso   1.00
C2316  C     0.87997   0.98457   0.53125   0.00000  Uiso   1.00
H1541  H     0.84098   0.98131   0.47861   0.00000  Uiso   1.00
H1542  H     0.82174   0.94292   0.49965   0.00000  Uiso   1.00
H1543  H     0.87699   0.95776   0.56112   0.00000  Uiso   1.00
H1544  H     0.89655   0.99627   0.54036   0.00000  Uiso   1.00
C2317  C     0.86885   0.91651   0.51116   0.00000  Uiso   1.00
C2318  C     0.84944   0.90461   0.52834   0.00000  Uiso   1.00
C2319  C     0.84090   0.88203   0.53324   0.00000  Uiso   1.00
C2320  C     0.85170   0.87146   0.52160   0.00000  Uiso   1.00
C2321  C     0.87140   0.88340   0.50453   0.00000  Uiso   1.00
C2322  C     0.87980   0.90612   0.49939   0.00000  Uiso   1.00
Si111  Si    0.83484   0.91855   0.54541   0.00000  Uiso   1.00
C2323  C     0.80594   0.90293   0.53079   0.00000  Uiso   1.00
C2324  C     0.78860   0.89483   0.55263   0.00000  Uiso   1.00
C2325  C     0.76731   0.88424   0.54137   0.00000  Uiso   1.00
C2326  C     0.76291   0.88143   0.50774   0.00000  Uiso   1.00
C2327  C     0.78051   0.88937   0.48589   0.00000  Uiso   1.00
C2328  C     0.80172   0.89989   0.49744   0.00000  Uiso   1.00
C2329  C     0.84305   0.90654   0.60810   0.00000  Uiso   1.00
C2330  C     0.84308   0.90644   0.64242   0.00000  Uiso   1.00
C2331  C     0.83584   0.91864   0.65978   0.00000  Uiso   1.00
C2332  C     0.82867   0.93103   0.64303   0.00000  Uiso   1.00
C2333  C     0.82861   0.93108   0.60870   0.00000  Uiso   1.00
C2334  C     0.83570   0.91874   0.59134   0.00000  Uiso   1.00
Si112  Si    0.83570   0.91852   0.70572   0.00000  Uiso   1.00
C2335  C     0.87284   0.99139   0.74476   0.00000  Uiso   1.00
C2336  C     0.85839   0.97402   0.76496   0.00000  Uiso   1.00
C2337  C     0.84733   0.95249   0.75317   0.00000  Uiso   1.00
C2338  C     0.85034   0.94776   0.72121   0.00000  Uiso   1.00
C2339  C     0.86467   0.96490   0.70106   0.00000  Uiso   1.00
C2340  C     0.87587   0.98650   0.71257   0.00000  Uiso   1.00
C2341  C     0.85032   0.90418   0.72079   0.00000  Uiso   1.00
C2342  C     0.83874   0.88209   0.73021   0.00000  Uiso   1.00
C2343  C     0.84960   0.87158   0.74162   0.00000  Uiso   1.00
C2344  C     0.87243   0.88310   0.74381   0.00000  Uiso   1.00
C2345  C     0.88399   0.90535   0.73416   0.00000  Uiso   1.00
C2346  C     0.87297   0.91568   0.72276   0.00000  Uiso   1.00
C2347  C     0.80274   0.89836   0.75386   0.00000  Uiso   1.00
C2348  C     0.78161   0.88813   0.76571   0.00000  Uiso   1.00
C2349  C     0.76409   0.88299   0.74465   0.00000  Uiso   1.00
C2350  C     0.76842   0.88831   0.71148   0.00000  Uiso   1.00
C2351  C     0.78962   0.89853   0.69994   0.00000  Uiso   1.00
C2352  C     0.80693   0.90378   0.72101   0.00000  Uiso   1.00
H1545  H     0.87561   0.93444   0.50682   0.00000  Uiso   1.00
H1546  H     0.82536   0.87246   0.54672   0.00000  Uiso   1.00
H1547  H     0.84476   0.85356   0.52613   0.00000  Uiso   1.00
H1548  H     0.89515   0.91586   0.48567   0.00000  Uiso   1.00
H1549  H     0.79185   0.89689   0.57924   0.00000  Uiso   1.00
H1550  H     0.75377   0.87785   0.55913   0.00000  Uiso   1.00
H1551  H     0.77754   0.88746   0.45927   0.00000  Uiso   1.00
H1552  H     0.81549   0.90612   0.47997   0.00000  Uiso   1.00
H1553  H     0.84895   0.89682   0.59444   0.00000  Uiso   1.00
H1554  H     0.84895   0.89661   0.65563   0.00000  Uiso   1.00
H1555  H     0.82299   0.94091   0.65677   0.00000  Uiso   1.00
H1556  H     0.82286   0.94100   0.59544   0.00000  Uiso   1.00
H1557  H     0.85587   0.97742   0.79052   0.00000  Uiso   1.00
H1558  H     0.83600   0.93892   0.76940   0.00000  Uiso   1.00
H1559  H     0.86713   0.96125   0.67555   0.00000  Uiso   1.00
H1560  H     0.88705   0.99993   0.69609   0.00000  Uiso   1.00
H1561  H     0.82070   0.87286   0.72869   0.00000  Uiso   1.00
H1562  H     0.84011   0.85408   0.74930   0.00000  Uiso   1.00
H1563  H     0.90201   0.91472   0.73538   0.00000  Uiso   1.00
H1564  H     0.88224   0.93325   0.71515   0.00000  Uiso   1.00
H1565  H     0.81644   0.90231   0.77073   0.00000  Uiso   1.00
H1566  H     0.77867   0.88420   0.79197   0.00000  Uiso   1.00
H1567  H     0.75489   0.88420   0.69429   0.00000  Uiso   1.00
H1568  H     0.79279   0.90253   0.67366   0.00000  Uiso   1.00
H1569  H     0.25737   0.37788   0.50621   0.00000  Uiso   1.00
H1570  H     0.37440   0.38168   0.50049   0.00000  Uiso   1.00
H1571  H     0.25911   0.38086   0.74761   0.00000  Uiso   1.00
H1572  H     0.37536   0.38099   0.74636   0.00000  Uiso   1.00
H1573  H     0.25736   0.62780   0.50625   0.00000  Uiso   1.00
H1574  H     0.37210   0.74634   0.50483   0.00000  Uiso   1.00
H1575  H     0.25910   0.63079   0.74755   0.00000  Uiso   1.00
H1576  H     0.37615   0.74619   0.74823   0.00000  Uiso   1.00
H1577  H     0.62438   0.63166   0.50048   0.00000  Uiso   1.00
H1578  H     0.62204   0.74635   0.50486   0.00000  Uiso   1.00
H1579  H     0.62531   0.63095   0.74642   0.00000  Uiso   1.00
H1580  H     0.62610   0.74622   0.74817   0.00000  Uiso   1.00
loop_
_geom_bond_atom_site_label_1
_geom_bond_atom_site_label_2
_geom_bond_distance
_geom_bond_site_symmetry_2
_ccdc_geom_bond_type
C1     C2      1.412   .     A
C1     C6      1.413   .     A
C1     C1411   1.454   1_545 S
C2     C3      1.394   .     A
C2     H1      1.113   .     S
C3     C4      1.400   .     A
C3     H2      1.116   .     S
C4     C5      1.401   .     A
C4     Si1     1.883   .     S
C5     C6      1.394   .     A
C5     H3      1.116   .     S
C6     H4      1.114   .     S
C7     C8      1.400   .     A
C7     C12     1.394   .     A
C7     H5      1.115   .     S
C8     C9      1.400   .     A
C8     Si1     1.885   .     S
C9     C10     1.394   .     A
C9     H6      1.116   .     S
C10    C11     1.412   .     A
C10    H7      1.113   .     S
C11    C12     1.412   .     A
C11    C76     1.454   .     S
C12    H8      1.114   .     S
Si1    C13     1.884   .     S
Si1    C24     1.895   .     S
C13    C14     1.400   .     A
C13    C18     1.400   .     A
C14    C15     1.394   .     A
C14    H9      1.115   .     S
C15    C16     1.413   .     A
C15    H10     1.113   .     S
C16    C17     1.413   .     A
C16    C165    1.455   .     S
C17    C18     1.393   .     A
C17    H11     1.113   .     S
C18    H12     1.116   .     S
C19    C20     1.416   .     A
C19    C24     1.394   .     A
C19    H13     1.115   .     S
C20    C21     1.395   .     A
C20    H14     1.115   .     S
C21    C22     1.395   .     A
C21    Si2     1.896   .     S
C22    C23     1.416   .     A
C22    H15     1.115   .     S
C23    C24     1.396   .     A
C23    H16     1.115   .     S
Si2    C28     1.884   .     S
Si2    C31     1.884   .     S
Si2    C42     1.885   .     S
C25    C26     1.412   .     A
C25    C30     1.412   .     A
C25    C1639   1.453   1_545 S
C26    C27     1.394   .     A
C26    H17     1.113   .     S
C27    C28     1.400   .     A
C27    H18     1.116   .     S
C28    C29     1.400   .     A
C29    C30     1.394   .     A
C29    H19     1.115   .     S
C30    H20     1.114   .     S
C31    C32     1.401   .     A
C31    C36     1.401   .     A
C32    C33     1.393   .     A
C32    H21     1.116   .     S
C33    C34     1.413   .     A
C33    H22     1.113   .     S
C34    C35     1.413   .     A
C34    C347    1.457   .     S
C35    C36     1.393   .     A
C35    H23     1.113   .     S
C36    H24     1.116   .     S
C37    C38     1.393   .     A
C37    C42     1.401   .     A
C37    H25     1.116   .     S
C38    C39     1.413   .     A
C38    H26     1.113   .     S
C39    C40     1.413   .     A
C39    C436    1.457   .     S
C40    C41     1.393   .     A
C40    H27     1.113   .     S
C41    C42     1.400   .     A
C41    H28     1.115   .     S
C43    C44     1.411   1_554 A
C43    C48     1.412   .     A
C43    C487    1.453   1_554 S
C44    C43     1.411   1_556 A
C44    C45     1.394   1_556 A
C44    H29     1.114   .     S
C45    C44     1.394   1_554 A
C45    C46     1.400   .     A
C45    H30     1.115   1_554 S
C46    C47     1.400   .     A
C46    Si3     1.885   .     S
C47    C48     1.394   .     A
C47    H31     1.116   .     S
C48    H32     1.114   .     S
H30    C45     1.115   1_556 S
C49    C50     1.401   .     A
C49    C54     1.394   1_554 A
C49    H33     1.116   .     S
C50    C51     1.401   .     A
C50    Si3     1.883   .     S
C51    C52     1.393   .     A
C51    H34     1.116   .     S
C52    C53     1.413   .     A
C52    H35     1.113   .     S
C53    C54     1.413   1_554 A
C53    C328    1.456   1_554 S
C54    C49     1.394   1_556 A
C54    C53     1.413   1_556 A
C54    H36     1.113   .     S
Si3    C55     1.884   .     S
Si3    C66     1.895   .     S
C55    C56     1.401   .     A
C55    C60     1.400   1_554 A
C56    C57     1.394   .     A
C56    H37     1.115   .     S
C57    C58     1.413   .     A
C57    H38     1.113   .     S
C58    C59     1.414   1_554 A
C58    C1047   1.458   1_454 S
C59    C58     1.414   1_556 A
C59    C60     1.393   .     A
C59    H39     1.113   .     S
C60    C55     1.400   1_556 A
C60    H40     1.116   .     S
C61    C62     1.416   .     A
C61    C66     1.395   .     A
C61    H41     1.115   .     S
C62    C63     1.395   .     A
C62    H42     1.115   .     S
C63    C64     1.396   .     A
C63    Si4     1.895   .     S
C64    C65     1.416   .     A
C64    H43     1.115   .     S
C65    C66     1.397   .     A
C65    H44     1.115   .     S
Si4    C70     1.885   .     S
Si4    C73     1.883   .     S
Si4    C84     1.885   .     S
C67    C68     1.412   .     A
C67    C72     1.411   .     A
C67    C169    1.454   .     S
C68    C69     1.393   .     A
C68    H45     1.114   .     S
C69    C70     1.400   .     A
C69    H46     1.114   .     S
C70    C71     1.400   .     A
C71    C72     1.394   .     A
C71    H47     1.116   .     S
C72    H48     1.113   .     S
C73    C74     1.400   .     A
C73    C78     1.401   .     A
C74    C75     1.394   .     A
C74    H49     1.115   .     S
C75    C76     1.412   .     A
C75    H50     1.113   .     S
C76    C77     1.413   .     A
C77    C78     1.394   .     A
C77    H51     1.113   .     S
C78    H52     1.116   .     S
C79    C80     1.394   .     A
C79    C84     1.400   .     A
C79    H53     1.116   .     S
C80    C81     1.412   .     A
C80    H54     1.113   .     S
C81    C82     1.413   .     A
C81    C688    1.455   1_455 S
C82    C83     1.394   .     A
C82    H55     1.113   .     S
C83    C84     1.400   .     A
C83    H56     1.115   .     S
C85    C86     1.412   .     A
C85    C90     1.413   .     A
C85    C1495   1.453   1_545 S
C86    C87     1.394   .     A
C86    H57     1.113   .     S
C87    C88     1.401   .     A
C87    H58     1.115   .     S
C88    C89     1.401   .     A
C88    Si5     1.883   .     S
C89    C90     1.394   .     A
C89    H59     1.116   .     S
C90    H60     1.114   .     S
C91    C92     1.400   .     A
C91    C96     1.394   .     A
C91    H61     1.116   .     S
C92    C93     1.400   .     A
C92    Si5     1.886   .     S
C93    C94     1.394   .     A
C93    H62     1.116   .     S
C94    C95     1.413   .     A
C94    H63     1.113   .     S
C95    C96     1.412   .     A
C95    C160    1.453   .     S
C96    H64     1.113   .     S
Si5    C97     1.884   .     S
Si5    C108    1.895   .     S
C97    C98     1.401   .     A
C97    C102    1.400   .     A
C98    C99     1.394   .     A
C98    H65     1.115   .     S
C99    C100    1.413   .     A
C99    H66     1.113   .     S
C100   C101    1.413   .     A
C100   C669    1.455   .     S
C101   C102    1.394   .     A
C101   H67     1.113   .     S
C102   H68     1.116   .     S
C103   C104    1.416   .     A
C103   C108    1.395   .     A
C103   H69     1.114   .     S
C104   C105    1.396   .     A
C104   H70     1.115   .     S
C105   C106    1.395   .     A
C105   Si6     1.895   .     S
C106   C107    1.416   .     A
C106   H71     1.115   .     S
C107   C108    1.396   .     A
C107   H72     1.114   .     S
Si6    C112    1.884   .     S
Si6    C115    1.884   .     S
Si6    C126    1.885   .     S
C109   C110    1.412   .     A
C109   C114    1.412   .     A
C109   C1723   1.453   1_545 S
C110   C111    1.394   .     A
C110   H73     1.113   .     S
C111   C112    1.400   .     A
C111   H74     1.116   .     S
C112   C113    1.401   .     A
C113   C114    1.394   .     A
C113   H75     1.116   .     S
C114   H76     1.113   .     S
C115   C116    1.401   .     A
C115   C120    1.400   .     A
C116   C117    1.394   .     A
C116   H77     1.116   .     S
C117   C118    1.413   .     A
C117   H78     1.113   .     S
C118   C119    1.413   .     A
C118   C431    1.456   .     S
C119   C120    1.393   .     A
C119   H79     1.113   .     S
C120   H80     1.116   .     S
C121   C122    1.393   .     A
C121   C126    1.400   .     A
C121   H81     1.116   .     S
C122   C123    1.414   .     A
C122   H82     1.113   .     S
C123   C124    1.413   .     A
C123   C982    1.457   .     S
C124   C125    1.393   .     A
C124   H83     1.113   .     S
C125   C126    1.400   .     A
C125   H84     1.115   .     S
C127   C128    1.412   1_554 A
C127   C132    1.412   .     A
C127   C571    1.453   1_554 S
C128   C127    1.412   1_556 A
C128   C129    1.394   1_556 A
C128   H85     1.113   .     S
C129   C128    1.394   1_554 A
C129   C130    1.401   .     A
C129   H86     1.115   1_554 S
C130   C131    1.400   .     A
C130   Si7     1.884   .     S
C131   C132    1.394   .     A
C131   H87     1.116   .     S
C132   H88     1.113   .     S
H86    C129    1.115   1_556 S
C133   C134    1.401   .     A
C133   C138    1.394   1_554 A
C133   H89     1.116   .     S
C134   C135    1.400   .     A
C134   Si7     1.883   .     S
C135   C136    1.394   .     A
C135   H90     1.116   .     S
C136   C137    1.414   .     A
C136   H91     1.113   .     S
C137   C138    1.413   1_554 A
C137   C412    1.456   1_554 S
C138   C133    1.394   1_556 A
C138   C137    1.413   1_556 A
C138   H92     1.113   .     S
Si7    C139    1.884   .     S
Si7    C150    1.895   .     S
C139   C140    1.401   .     A
C139   C144    1.401   1_554 A
C140   C141    1.393   .     A
C140   H93     1.116   .     S
C141   C142    1.413   .     A
C141   H94     1.113   .     S
C142   C143    1.414   1_554 A
C142   C333    1.458   1_554 S
C143   C142    1.414   1_556 A
C143   C144    1.393   .     A
C143   H95     1.113   .     S
C144   C139    1.401   1_556 A
C144   H96     1.116   .     S
C145   C146    1.415   .     A
C145   C150    1.394   .     A
C145   H97     1.115   .     S
C146   C147    1.396   .     A
C146   H98     1.114   .     S
C147   C148    1.396   .     A
C147   Si8     1.895   .     S
C148   C149    1.416   .     A
C148   H99     1.115   .     S
C149   C150    1.397   .     A
C149   H100    1.115   .     S
Si8    C154    1.885   .     S
Si8    C157    1.884   .     S
Si8    C168    1.885   .     S
C151   C152    1.412   .     A
C151   C156    1.412   .     A
C151   C253    1.454   .     S
C152   C153    1.394   .     A
C152   H101    1.113   .     S
C153   C154    1.400   .     A
C153   H102    1.115   .     S
C154   C155    1.401   .     A
C155   C156    1.394   .     A
C155   H103    1.116   .     S
C156   H104    1.113   .     S
C157   C158    1.401   .     A
C157   C162    1.401   .     A
C158   C159    1.394   .     A
C158   H105    1.115   .     S
C159   C160    1.413   .     A
C159   H106    1.113   .     S
C160   C161    1.413   .     A
C161   C162    1.395   .     A
C161   H107    1.113   .     S
C162   H108    1.116   .     S
C163   C164    1.394   .     A
C163   C168    1.400   .     A
C163   H109    1.115   .     S
C164   C165    1.412   .     A
C164   H110    1.113   .     S
C165   C166    1.412   .     A
C166   C167    1.394   .     A
C166   H111    1.113   .     S
C167   C168    1.400   .     A
C167   H112    1.115   .     S
C169   C170    1.413   .     A
C169   C174    1.413   .     A
C170   C171    1.393   .     A
C170   H113    1.113   .     S
C171   C172    1.403   .     A
C171   H114    1.116   .     S
C172   C173    1.403   .     A
C172   Si9     1.877   .     S
C173   C174    1.393   .     A
C173   H115    1.116   .     S
C174   H116    1.113   .     S
C175   C176    1.402   .     A
C175   C180    1.393   .     A
C175   H117    1.115   .     S
C176   C177    1.402   .     A
C176   Si9     1.879   .     S
C177   C178    1.393   .     A
C177   H118    1.116   .     S
C178   C179    1.413   .     A
C178   H119    1.114   .     S
C179   C180    1.412   .     A
C179   C244    1.454   .     S
C180   H120    1.113   .     S
Si9    C181    1.948   .     S
Si9    C192    1.890   .     S
C181   C182    1.397   .     A
C181   C186    1.397   .     A
C182   C183    1.463   .     A
C182   H121    1.111   .     S
C183   C184    1.390   .     A
C183   H122    1.118   .     S
C184   C185    1.391   .     A
C185   C186    1.463   .     A
C185   H123    1.118   .     S
C186   H124    1.112   .     S
C187   C188    1.415   .     A
C187   C192    1.397   .     A
C187   H125    1.114   .     S
C188   C189    1.396   .     A
C188   H126    1.116   .     S
C189   C190    1.396   .     A
C189   Si10    1.894   .     S
C190   C191    1.415   .     A
C190   H127    1.115   .     S
C191   C192    1.398   .     A
C191   H128    1.115   .     S
Si10   C196    1.884   .     S
Si10   C199    1.883   .     S
Si10   C210    1.892   .     S
C193   C194    1.412   .     A
C193   C198    1.412   .     A
C193   C337    1.453   .     S
C194   C195    1.394   .     A
C194   H129    1.113   .     S
C195   C196    1.400   .     A
C195   H130    1.115   .     S
C196   C197    1.400   .     A
C197   C198    1.394   .     A
C197   H131    1.116   .     S
C198   H132    1.113   .     S
C199   C200    1.400   .     A
C199   C204    1.401   .     A
C200   C201    1.394   .     A
C200   H133    1.116   .     S
C201   C202    1.413   .     A
C201   H134    1.113   .     S
C202   C203    1.414   .     A
C202   C515    1.456   .     S
C203   C204    1.393   .     A
C203   H135    1.113   .     S
C204   H136    1.116   .     S
C205   C206    1.422   .     A
C205   C210    1.400   .     A
C205   H137    1.114   .     S
C206   C207    1.424   .     A
C206   H138    1.114   .     S
C207   C208    1.424   .     A
C207   H1569   1.115   .     S
C208   C209    1.422   .     A
C208   H139    1.114   .     S
C209   C210    1.400   .     A
C209   H140    1.114   .     S
C211   C212    1.412   1_554 A
C211   C216    1.411   .     A
C211   C1537   1.453   1_554 S
C212   C211    1.412   1_556 A
C212   C213    1.394   1_556 A
C212   H141    1.113   .     S
C213   C212    1.394   1_554 A
C213   C214    1.400   .     A
C213   H142    1.115   1_554 S
C214   C215    1.400   .     A
C214   Si11    1.884   .     S
C215   C216    1.395   .     A
C215   H143    1.115   .     S
C216   H144    1.113   .     S
H142   C213    1.115   1_556 S
C217   C218    1.401   .     A
C217   C222    1.394   1_554 A
C217   H145    1.115   .     S
C218   C219    1.400   .     A
C218   Si11    1.884   .     S
C219   C220    1.393   .     A
C219   H146    1.116   .     S
C220   C221    1.413   .     A
C220   H147    1.114   .     S
C221   C222    1.413   1_554 A
C221   C496    1.457   1_554 S
C222   C221    1.413   1_556 A
C222   C217    1.394   1_556 A
C222   H148    1.113   .     S
Si11   C223    1.884   .     S
Si11   C234    1.895   .     S
C223   C224    1.401   .     A
C223   C228    1.400   1_554 A
C224   C225    1.393   .     A
C224   H149    1.115   .     S
C225   C226    1.413   .     A
C225   H150    1.113   .     S
C226   C227    1.414   1_554 A
C226   C1215   1.458   1_454 S
C227   C226    1.414   1_556 A
C227   C228    1.393   .     A
C227   H151    1.113   .     S
C228   C223    1.400   1_556 A
C228   H152    1.116   .     S
C229   C230    1.416   .     A
C229   C234    1.395   .     A
C229   H153    1.115   .     S
C230   C231    1.395   .     A
C230   H154    1.115   .     S
C231   C232    1.396   .     A
C231   Si12    1.895   .     S
C232   C233    1.416   .     A
C232   H155    1.115   .     S
C233   C234    1.396   .     A
C233   H156    1.115   .     S
Si12   C238    1.885   .     S
Si12   C241    1.884   .     S
Si12   C252    1.885   .     S
C235   C236    1.412   .     A
C235   C240    1.412   .     A
C235   C1261   1.454   .     S
C236   C237    1.394   .     A
C236   H157    1.113   .     S
C237   C238    1.400   .     A
C237   H158    1.115   .     S
C238   C239    1.400   .     A
C239   C240    1.395   .     A
C239   H159    1.116   .     S
C240   H160    1.113   .     S
C241   C242    1.400   .     A
C241   C246    1.401   .     A
C242   C243    1.394   .     A
C242   H161    1.116   .     S
C243   C244    1.412   .     A
C243   H162    1.113   .     S
C244   C245    1.412   .     A
C245   C246    1.393   .     A
C245   H163    1.114   .     S
C246   H164    1.116   .     S
C247   C248    1.394   .     A
C247   C252    1.400   .     A
C247   H165    1.116   .     S
C248   C249    1.412   .     A
C248   H166    1.113   .     S
C249   C250    1.412   .     A
C249   C856    1.455   1_455 S
C250   C251    1.394   .     A
C250   H167    1.113   .     S
C251   C252    1.400   .     A
C251   H168    1.115   .     S
C253   C254    1.413   .     A
C253   C258    1.414   .     A
C254   C255    1.393   .     A
C254   H169    1.113   .     S
C255   C256    1.404   .     A
C255   H170    1.116   .     S
C256   C257    1.403   .     A
C256   Si13    1.877   .     S
C257   C258    1.393   .     A
C257   H171    1.115   .     S
C258   H172    1.113   .     S
C259   C260    1.397   .     A
C259   C264    1.463   .     A
C259   H173    1.112   .     S
C260   C261    1.397   .     A
C260   Si13    1.949   .     S
C261   C262    1.463   .     A
C261   H174    1.112   .     S
C262   C263    1.391   .     A
C262   H175    1.118   .     S
C263   C264    1.391   .     A
C264   H176    1.118   .     S
Si13   C265    1.877   .     S
Si13   C276    1.890   .     S
C265   C266    1.403   .     A
C265   C270    1.403   .     A
C266   C267    1.393   .     A
C266   H177    1.115   .     S
C267   C268    1.413   .     A
C267   H178    1.113   .     S
C268   C269    1.413   .     A
C268   C837    1.455   .     S
C269   C270    1.393   .     A
C269   H179    1.113   .     S
C270   H180    1.115   .     S
C271   C272    1.415   .     A
C271   C276    1.396   .     A
C271   H181    1.115   .     S
C272   C273    1.397   .     A
C272   H182    1.115   .     S
C273   C274    1.395   .     A
C273   Si14    1.894   .     S
C274   C275    1.415   .     A
C274   H183    1.115   .     S
C275   C276    1.398   .     A
C275   H184    1.115   .     S
Si14   C280    1.883   .     S
Si14   C283    1.891   .     S
Si14   C294    1.884   .     S
C277   C278    1.412   .     A
C277   C282    1.412   .     A
C277   C421    1.453   .     S
C278   C279    1.394   .     A
C278   H185    1.114   .     S
C279   C280    1.400   .     A
C279   H186    1.116   .     S
C280   C281    1.401   .     A
C281   C282    1.394   .     A
C281   H187    1.115   .     S
C282   H188    1.113   .     S
C283   C284    1.400   .     A
C283   C288    1.400   .     A
C284   C285    1.421   .     A
C284   H189    1.115   .     S
C285   C286    1.424   .     A
C285   H190    1.114   .     S
C286   C287    1.423   .     A
C286   H1570   1.115   .     S
C287   C288    1.422   .     A
C287   H191    1.115   .     S
C288   H192    1.115   .     S
C289   C290    1.394   .     A
C289   C294    1.400   .     A
C289   H193    1.116   .     S
C290   C291    1.414   .     A
C290   H194    1.113   .     S
C291   C292    1.413   .     A
C291   C1150   1.457   .     S
C292   C293    1.393   .     A
C292   H195    1.113   .     S
C293   C294    1.401   .     A
C293   H196    1.115   .     S
C295   C296    1.412   .     A
C295   C300    1.412   .     A
C295   C1663   1.454   1_545 S
C296   C297    1.394   .     A
C296   H197    1.113   .     S
C297   C298    1.400   .     A
C297   H198    1.116   .     S
C298   C299    1.401   .     A
C298   Si15    1.884   .     S
C299   C300    1.394   .     A
C299   H199    1.116   .     S
C300   H200    1.113   .     S
C301   C302    1.400   .     A
C301   C306    1.394   .     A
C301   H201    1.115   .     S
C302   C303    1.400   .     A
C302   Si15    1.885   .     S
C303   C304    1.394   .     A
C303   H202    1.116   .     S
C304   C305    1.412   .     A
C304   H203    1.114   .     S
C305   C306    1.412   .     A
C305   C370    1.454   .     S
C306   H204    1.113   .     S
Si15   C307    1.884   .     S
Si15   C318    1.895   .     S
C307   C308    1.400   .     A
C307   C312    1.401   .     A
C308   C309    1.394   .     A
C308   H205    1.115   .     S
C309   C310    1.413   .     A
C309   H206    1.113   .     S
C310   C311    1.413   .     A
C310   C459    1.455   .     S
C311   C312    1.394   .     A
C311   H207    1.113   .     S
C312   H208    1.116   .     S
C313   C314    1.416   .     A
C313   C318    1.394   .     A
C313   H209    1.115   .     S
C314   C315    1.396   .     A
C314   H210    1.115   .     S
C315   C316    1.395   .     A
C315   Si16    1.895   .     S
C316   C317    1.416   .     A
C316   H211    1.115   .     S
C317   C318    1.396   .     A
C317   H212    1.115   .     S
Si16   C322    1.884   .     S
Si16   C325    1.884   .     S
Si16   C336    1.885   .     S
C319   C320    1.413   1_556 A
C319   C324    1.412   .     A
C319   C1387   1.453   1_546 S
C320   C319    1.413   1_554 A
C320   C321    1.394   .     A
C320   H213    1.113   .     S
C321   C322    1.400   1_554 A
C321   H214    1.115   .     S
C322   C321    1.400   1_556 A
C322   C323    1.401   .     A
C323   C324    1.394   .     A
C323   H215    1.116   .     S
C324   H216    1.113   .     S
C325   C326    1.401   .     A
C325   C330    1.400   .     A
C326   C327    1.393   .     A
C326   H217    1.116   .     S
C327   C328    1.413   .     A
C327   H218    1.113   .     S
C328   C53     1.456   1_556 S
C328   C329    1.414   .     A
C329   C330    1.393   .     A
C329   H219    1.113   .     S
C330   H220    1.116   .     S
C331   C332    1.393   .     A
C331   C336    1.400   1_554 A
C331   H221    1.116   .     S
C332   C333    1.413   1_554 A
C332   H222    1.113   .     S
C333   C142    1.458   1_556 S
C333   C332    1.413   1_556 A
C333   C334    1.413   .     A
C334   C335    1.393   .     A
C334   H223    1.113   .     S
C335   C336    1.401   .     A
C335   H224    1.115   .     S
C336   C331    1.400   1_556 A
C337   C338    1.412   .     A
C337   C342    1.412   .     A
C338   C339    1.394   .     A
C338   H225    1.113   .     S
C339   C340    1.400   .     A
C339   H226    1.115   .     S
C340   C341    1.400   .     A
C340   Si17    1.885   .     S
C341   C342    1.394   .     A
C341   H227    1.116   .     S
C342   H228    1.113   .     S
C343   C344    1.401   .     A
C343   C348    1.393   .     A
C343   H229    1.115   .     S
C344   C345    1.400   .     A
C344   Si17    1.884   .     S
C345   C346    1.393   .     A
C345   H230    1.116   .     S
C346   C347    1.413   .     A
C346   H231    1.113   .     S
C347   C348    1.413   .     A
C348   H232    1.113   .     S
Si17   C349    1.884   .     S
Si17   C360    1.895   .     S
C349   C350    1.400   .     A
C349   C354    1.401   .     A
C350   C351    1.393   .     A
C350   H233    1.116   .     S
C351   C352    1.414   .     A
C351   H234    1.113   .     S
C352   C353    1.414   .     A
C352   C711    1.458   1_455 S
C353   C354    1.393   .     A
C353   H235    1.113   .     S
C354   H236    1.116   .     S
C355   C356    1.416   .     A
C355   C360    1.395   .     A
C355   H237    1.114   .     S
C356   C357    1.395   .     A
C356   H238    1.115   .     S
C357   C358    1.396   .     A
C357   Si18    1.895   .     S
C358   C359    1.416   .     A
C358   H239    1.115   .     S
C359   C360    1.396   .     A
C359   H240    1.115   .     S
Si18   C364    1.885   .     S
Si18   C367    1.883   .     S
Si18   C378    1.885   .     S
C361   C362    1.412   .     A
C361   C366    1.412   .     A
C361   C463    1.454   .     S
C362   C363    1.394   .     A
C362   H241    1.113   .     S
C363   C364    1.400   .     A
C363   H242    1.115   .     S
C364   C365    1.400   .     A
C365   C366    1.394   .     A
C365   H243    1.115   .     S
C366   H244    1.114   .     S
C367   C368    1.400   .     A
C367   C372    1.401   .     A
C368   C369    1.394   .     A
C368   H245    1.116   .     S
C369   C370    1.413   .     A
C369   H246    1.113   .     S
C370   C371    1.413   .     A
C371   C372    1.394   .     A
C371   H247    1.113   .     S
C372   H248    1.116   .     S
C373   C374    1.394   .     A
C373   C378    1.400   .     A
C373   H249    1.115   .     S
C374   C375    1.413   .     A
C374   H250    1.113   .     S
C375   C376    1.413   .     A
C375   C1024   1.455   1_455 S
C376   C377    1.394   .     A
C376   H251    1.113   .     S
C377   C378    1.400   .     A
C377   H252    1.115   .     S
C379   C380    1.412   .     A
C379   C384    1.413   .     A
C379   C1747   1.454   1_545 S
C380   C381    1.394   .     A
C380   H253    1.113   .     S
C381   C382    1.401   .     A
C381   H254    1.115   .     S
C382   C383    1.401   .     A
C382   Si19    1.884   .     S
C383   C384    1.394   .     A
C383   H255    1.116   .     S
C384   H256    1.113   .     S
C385   C386    1.400   .     A
C385   C390    1.394   .     A
C385   H257    1.116   .     S
C386   C387    1.400   .     A
C386   Si19    1.885   .     S
C387   C388    1.394   .     A
C387   H258    1.116   .     S
C388   C389    1.413   .     A
C388   H259    1.114   .     S
C389   C390    1.412   .     A
C389   C454    1.453   .     S
C390   H260    1.113   .     S
Si19   C391    1.884   .     S
Si19   C402    1.895   .     S
C391   C392    1.400   .     A
C391   C396    1.400   .     A
C392   C393    1.394   .     A
C392   H261    1.115   .     S
C393   C394    1.413   .     A
C393   H262    1.113   .     S
C394   C395    1.413   .     A
C394   C1005   1.455   .     S
C395   C396    1.394   .     A
C395   H263    1.113   .     S
C396   H264    1.116   .     S
C397   C398    1.416   .     A
C397   C402    1.395   .     A
C397   H265    1.115   .     S
C398   C399    1.396   .     A
C398   H266    1.115   .     S
C399   C400    1.395   .     A
C399   Si20    1.895   .     S
C400   C401    1.416   .     A
C400   H267    1.115   .     S
C401   C402    1.396   .     A
C401   H268    1.114   .     S
Si20   C406    1.884   .     S
Si20   C409    1.884   .     S
Si20   C420    1.885   .     S
C403   C404    1.412   1_556 A
C403   C408    1.412   .     A
C403   C1471   1.453   1_546 S
C404   C403    1.412   1_554 A
C404   C405    1.394   .     A
C404   H269    1.113   .     S
C405   C406    1.400   1_554 A
C405   H270    1.116   .     S
C406   C405    1.400   1_556 A
C406   C407    1.401   .     A
C407   C408    1.394   .     A
C407   H271    1.116   .     S
C408   H272    1.113   .     S
C409   C410    1.401   .     A
C409   C414    1.400   .     A
C410   C411    1.394   .     A
C410   H273    1.116   .     S
C411   C412    1.413   .     A
C411   H274    1.113   .     S
C412   C137    1.456   1_556 S
C412   C413    1.413   .     A
C413   C414    1.393   .     A
C413   H275    1.113   .     S
C414   H276    1.116   .     S
C415   C416    1.393   .     A
C415   C420    1.401   1_554 A
C415   H277    1.116   .     S
C416   C417    1.414   1_554 A
C416   H278    1.113   .     S
C417   C416    1.414   1_556 A
C417   C418    1.413   .     A
C417   C646    1.457   1_556 S
C418   C419    1.393   .     A
C418   H279    1.113   .     S
C419   C420    1.400   .     A
C419   H280    1.115   .     S
C420   C415    1.401   1_556 A
C421   C422    1.412   .     A
C421   C426    1.413   .     A
C422   C423    1.394   .     A
C422   H281    1.113   .     S
C423   C424    1.401   .     A
C423   H282    1.115   .     S
C424   C425    1.400   .     A
C424   Si21    1.884   .     S
C425   C426    1.394   .     A
C425   H283    1.116   .     S
C426   H284    1.113   .     S
C427   C428    1.400   .     A
C427   C432    1.394   .     A
C427   H285    1.116   .     S
C428   C429    1.400   .     A
C428   Si21    1.885   .     S
C429   C430    1.393   .     A
C429   H286    1.116   .     S
C430   C431    1.414   .     A
C430   H287    1.113   .     S
C431   C432    1.413   .     A
C432   H288    1.113   .     S
Si21   C433    1.883   .     S
Si21   C444    1.894   .     S
C433   C434    1.401   .     A
C433   C438    1.401   .     A
C434   C435    1.393   .     A
C434   H289    1.116   .     S
C435   C436    1.413   .     A
C435   H290    1.113   .     S
C436   C437    1.414   .     A
C437   C438    1.393   .     A
C437   H291    1.113   .     S
C438   H292    1.116   .     S
C439   C440    1.415   .     A
C439   C444    1.395   .     A
C439   H293    1.115   .     S
C440   C441    1.395   .     A
C440   H294    1.115   .     S
C441   C442    1.396   .     A
C441   Si22    1.895   .     S
C442   C443    1.416   .     A
C442   H295    1.116   .     S
C443   C444    1.397   .     A
C443   H296    1.115   .     S
Si22   C448    1.885   .     S
Si22   C451    1.884   .     S
Si22   C462    1.885   .     S
C445   C446    1.412   .     A
C445   C450    1.412   .     A
C445   C547    1.454   .     S
C446   C447    1.394   .     A
C446   H297    1.113   .     S
C447   C448    1.400   .     A
C447   H298    1.115   .     S
C448   C449    1.400   .     A
C449   C450    1.394   .     A
C449   H299    1.116   .     S
C450   H300    1.113   .     S
C451   C452    1.401   .     A
C451   C456    1.401   .     A
C452   C453    1.393   .     A
C452   H301    1.116   .     S
C453   C454    1.413   .     A
C453   H302    1.114   .     S
C454   C455    1.412   .     A
C455   C456    1.394   .     A
C455   H303    1.113   .     S
C456   H304    1.116   .     S
C457   C458    1.394   .     A
C457   C462    1.400   .     A
C457   H305    1.115   .     S
C458   C459    1.412   .     A
C458   H306    1.113   .     S
C459   C460    1.412   .     A
C460   C461    1.394   .     A
C460   H307    1.113   .     S
C461   C462    1.400   .     A
C461   H308    1.115   .     S
C463   C464    1.412   .     A
C463   C468    1.413   .     A
C464   C465    1.394   .     A
C464   H309    1.113   .     S
C465   C466    1.400   .     A
C465   H310    1.116   .     S
C466   C467    1.401   .     A
C466   Si23    1.883   .     S
C467   C468    1.393   .     A
C467   H311    1.116   .     S
C468   H312    1.113   .     S
C469   C470    1.400   .     A
C469   C474    1.394   .     A
C469   H313    1.115   .     S
C470   C471    1.400   .     A
C470   Si23    1.884   .     S
C471   C472    1.393   .     A
C471   H314    1.116   .     S
C472   C473    1.412   .     A
C472   H315    1.114   .     S
C473   C474    1.412   .     A
C473   C538    1.454   .     S
C474   H316    1.113   .     S
Si23   C475    1.891   .     S
Si23   C486    1.894   .     S
C475   C476    1.399   .     A
C475   C480    1.400   .     A
C476   C477    1.422   .     A
C476   H317    1.114   .     S
C477   C478    1.424   .     A
C477   H318    1.114   .     S
C478   C479    1.424   .     A
C478   H1571   1.115   .     S
C479   C480    1.421   .     A
C479   H319    1.114   .     S
C480   H320    1.115   .     S
C481   C482    1.415   .     A
C481   C486    1.395   .     A
C481   H321    1.114   .     S
C482   C483    1.398   .     A
C482   H322    1.115   .     S
C483   C484    1.397   .     A
C483   Si24    1.889   .     S
C484   C485    1.415   .     A
C484   H323    1.115   .     S
C485   C486    1.397   .     A
C485   H324    1.115   .     S
Si24   C490    1.878   .     S
Si24   C493    1.877   .     S
Si24   C504    1.949   .     S
C487   C43     1.453   1_556 S
C487   C488    1.413   1_556 A
C487   C492    1.413   .     A
C488   C487    1.413   1_554 A
C488   C489    1.393   .     A
C488   H325    1.114   .     S
C489   C490    1.402   1_554 A
C489   H326    1.116   .     S
C490   C489    1.402   1_556 A
C490   C491    1.403   .     A
C491   C492    1.394   .     A
C491   H327    1.115   .     S
C492   H328    1.114   .     S
C493   C494    1.403   .     A
C493   C498    1.403   .     A
C494   C495    1.393   .     A
C494   H329    1.116   .     S
C495   C496    1.414   .     A
C495   H330    1.113   .     S
C496   C221    1.457   1_556 S
C496   C497    1.414   .     A
C497   C498    1.392   .     A
C497   H331    1.114   .     S
C498   H332    1.116   .     S
C499   C500    1.464   .     A
C499   C504    1.396   1_554 A
C499   H333    1.112   .     S
C500   C501    1.391   1_554 A
C500   H334    1.118   .     S
C501   C500    1.391   1_556 A
C501   C502    1.390   .     A
C502   C503    1.464   .     A
C502   H335    1.118   .     S
C503   C504    1.396   .     A
C503   H336    1.112   .     S
C504   C499    1.396   1_556 A
C505   C506    1.412   .     A
C505   C510    1.412   .     A
C505   C1285   1.453   .     S
C506   C507    1.395   .     A
C506   H337    1.113   .     S
C507   C508    1.400   .     A
C507   H338    1.115   .     S
C508   C509    1.400   .     A
C508   Si25    1.884   .     S
C509   C510    1.394   .     A
C509   H339    1.116   .     S
C510   H340    1.113   .     S
C511   C512    1.400   .     A
C511   C516    1.393   .     A
C511   H341    1.115   .     S
C512   C513    1.400   .     A
C512   Si25    1.885   .     S
C513   C514    1.393   .     A
C513   H342    1.116   .     S
C514   C515    1.414   .     A
C514   H343    1.113   .     S
C515   C516    1.413   .     A
C516   H344    1.113   .     S
Si25   C517    1.883   .     S
Si25   C528    1.895   .     S
C517   C518    1.401   .     A
C517   C522    1.401   .     A
C518   C519    1.393   .     A
C518   H345    1.116   .     S
C519   C520    1.413   .     A
C519   H346    1.113   .     S
C520   C521    1.414   .     A
C520   C879    1.458   1_455 S
C521   C522    1.393   .     A
C521   H347    1.113   .     S
C522   H348    1.116   .     S
C523   C524    1.416   .     A
C523   C528    1.395   .     A
C523   H349    1.114   .     S
C524   C525    1.395   .     A
C524   H350    1.115   .     S
C525   C526    1.395   .     A
C525   Si26    1.895   .     S
C526   C527    1.416   .     A
C526   H351    1.116   .     S
C527   C528    1.397   .     A
C527   H352    1.115   .     S
Si26   C532    1.885   .     S
Si26   C535    1.884   .     S
Si26   C546    1.885   .     S
C529   C530    1.412   .     A
C529   C534    1.412   .     A
C529   C1513   1.454   .     S
C530   C531    1.394   .     A
C530   H353    1.113   .     S
C531   C532    1.400   .     A
C531   H354    1.115   .     S
C532   C533    1.400   .     A
C533   C534    1.394   .     A
C533   H355    1.116   .     S
C534   H356    1.113   .     S
C535   C536    1.400   .     A
C535   C540    1.401   .     A
C536   C537    1.394   .     A
C536   H357    1.115   .     S
C537   C538    1.412   .     A
C537   H358    1.113   .     S
C538   C539    1.413   .     A
C539   C540    1.394   .     A
C539   H359    1.113   .     S
C540   H360    1.116   .     S
C541   C542    1.394   .     A
C541   C546    1.400   .     A
C541   H361    1.115   .     S
C542   C543    1.413   .     A
C542   H362    1.113   .     S
C543   C544    1.412   .     A
C543   C1192   1.455   1_455 S
C544   C545    1.394   .     A
C544   H363    1.113   .     S
C545   C546    1.400   .     A
C545   H364    1.115   .     S
C547   C548    1.412   .     A
C547   C552    1.412   .     A
C548   C549    1.394   .     A
C548   H365    1.113   .     S
C549   C550    1.401   .     A
C549   H366    1.116   .     S
C550   C551    1.401   .     A
C550   Si27    1.883   .     S
C551   C552    1.394   .     A
C551   H367    1.116   .     S
C552   H368    1.114   .     S
C553   C554    1.400   .     A
C553   C558    1.422   .     A
C553   H369    1.115   .     S
C554   C555    1.400   .     A
C554   Si27    1.892   .     S
C555   C556    1.422   .     A
C555   H370    1.116   .     S
C556   C557    1.424   .     A
C556   H371    1.114   .     S
C557   C558    1.423   .     A
C557   H1572   1.116   .     S
C558   H372    1.115   .     S
Si27   C559    1.884   .     S
Si27   C570    1.894   .     S
C559   C560    1.401   .     A
C559   C564    1.401   .     A
C560   C561    1.394   .     A
C560   H373    1.115   .     S
C561   C562    1.413   .     A
C561   H374    1.113   .     S
C562   C563    1.412   .     A
C562   C1173   1.455   .     S
C563   C564    1.393   .     A
C563   H375    1.113   .     S
C564   H376    1.116   .     S
C565   C566    1.415   .     A
C565   C570    1.396   .     A
C565   H377    1.114   .     S
C566   C567    1.397   .     A
C566   H378    1.115   .     S
C567   C568    1.397   .     A
C567   Si28    1.890   .     S
C568   C569    1.415   .     A
C568   H379    1.115   .     S
C569   C570    1.396   .     A
C569   H380    1.115   .     S
Si28   C574    1.877   .     S
Si28   C577    1.947   .     S
Si28   C588    1.878   .     S
C571   C127    1.453   1_556 S
C571   C572    1.412   1_556 A
C571   C576    1.413   .     A
C572   C571    1.412   1_554 A
C572   C573    1.394   .     A
C572   H381    1.114   .     S
C573   C574    1.403   1_554 A
C573   H382    1.115   .     S
C574   C573    1.403   1_556 A
C574   C575    1.403   .     A
C575   C576    1.393   .     A
C575   H383    1.116   .     S
C576   H384    1.113   .     S
C577   C578    1.397   .     A
C577   C582    1.397   .     A
C578   C579    1.463   .     A
C578   H385    1.112   .     S
C579   C580    1.391   .     A
C579   H386    1.118   .     S
C580   C581    1.390   .     A
C581   C582    1.464   .     A
C581   H387    1.118   .     S
C582   H388    1.112   .     S
C583   C584    1.392   .     A
C583   C588    1.403   1_554 A
C583   H389    1.116   .     S
C584   C585    1.414   1_554 A
C584   H390    1.113   .     S
C585   C584    1.414   1_556 A
C585   C586    1.414   .     A
C585   C814    1.458   1_556 S
C586   C587    1.393   .     A
C586   H391    1.113   .     S
C587   C588    1.402   .     A
C587   H392    1.115   .     S
C588   C583    1.403   1_556 A
C589   C590    1.412   .     A
C589   C594    1.413   .     A
C589   C1957   1.453   1_545 S
C590   C591    1.394   .     A
C590   H393    1.113   .     S
C591   C592    1.400   .     A
C591   H394    1.116   .     S
C592   C593    1.401   .     A
C592   Si29    1.884   .     S
C593   C594    1.394   .     A
C593   H395    1.116   .     S
C594   H396    1.113   .     S
C595   C596    1.400   .     A
C595   C600    1.394   .     A
C595   H397    1.115   .     S
C596   C597    1.400   .     A
C596   Si29    1.885   .     S
C597   C598    1.394   .     A
C597   H398    1.116   .     S
C598   C599    1.412   .     A
C598   H399    1.113   .     S
C599   C600    1.413   .     A
C599   C664    1.453   .     S
C600   H400    1.114   .     S
Si29   C601    1.884   .     S
Si29   C612    1.895   .     S
C601   C602    1.401   .     A
C601   C606    1.401   .     A
C602   C603    1.394   .     A
C602   H401    1.115   .     S
C603   C604    1.413   .     A
C603   H402    1.113   .     S
C604   C605    1.413   .     A
C604   C753    1.455   .     S
C605   C606    1.394   .     A
C605   H403    1.113   .     S
C606   H404    1.115   .     S
C607   C608    1.416   .     A
C607   C612    1.395   .     A
C607   H405    1.114   .     S
C608   C609    1.396   .     A
C608   H406    1.115   .     S
C609   C610    1.395   .     A
C609   Si30    1.895   .     S
C610   C611    1.416   .     A
C610   H407    1.115   .     S
C611   C612    1.396   .     A
C611   H408    1.115   .     S
Si30   C616    1.885   .     S
Si30   C619    1.884   .     S
Si30   C630    1.884   .     S
C613   C614    1.413   .     A
C613   C618    1.412   .     A
C613   C2227   1.453   1_545 S
C614   C615    1.394   .     A
C614   H409    1.114   .     S
C615   C616    1.400   .     A
C615   H410    1.115   .     S
C616   C617    1.400   .     A
C617   C618    1.394   .     A
C617   H411    1.115   .     S
C618   H412    1.114   .     S
C619   C620    1.401   .     A
C619   C624    1.400   .     A
C620   C621    1.393   .     A
C620   H413    1.116   .     S
C621   C622    1.413   .     A
C621   H414    1.113   .     S
C622   C623    1.413   .     A
C622   C977    1.456   .     S
C623   C624    1.393   .     A
C623   H415    1.113   .     S
C624   H416    1.116   .     S
C625   C626    1.393   .     A
C625   C630    1.401   .     A
C625   H417    1.116   .     S
C626   C627    1.413   .     A
C626   H418    1.113   .     S
C627   C628    1.414   .     A
C627   C1066   1.458   .     S
C628   C629    1.393   .     A
C628   H419    1.113   .     S
C629   C630    1.401   .     A
C629   H420    1.115   .     S
C631   C632    1.412   1_554 A
C631   C636    1.413   .     A
C631   C1117   1.453   1_554 S
C632   C631    1.412   1_556 A
C632   C633    1.394   1_556 A
C632   H421    1.113   .     S
C633   C632    1.394   1_554 A
C633   C634    1.401   .     A
C633   H422    1.115   1_554 S
C634   C635    1.400   .     A
C634   Si31    1.885   .     S
C635   C636    1.394   .     A
C635   H423    1.115   .     S
C636   H424    1.113   .     S
H422   C633    1.115   1_556 S
C637   C638    1.401   .     A
C637   C642    1.394   1_554 A
C637   H425    1.115   .     S
C638   C639    1.400   .     A
C638   Si31    1.884   .     S
C639   C640    1.393   .     A
C639   H426    1.116   .     S
C640   C641    1.414   .     A
C640   H427    1.113   .     S
C641   C642    1.413   1_554 A
C641   C958    1.456   1_554 S
C642   C641    1.413   1_556 A
C642   C637    1.394   1_556 A
C642   H428    1.113   .     S
Si31   C643    1.884   .     S
Si31   C654    1.895   .     S
C643   C644    1.400   .     A
C643   C648    1.401   1_554 A
C644   C645    1.394   .     A
C644   H429    1.116   .     S
C645   C646    1.413   .     A
C645   H430    1.113   .     S
C646   C417    1.457   1_554 S
C646   C647    1.414   1_554 A
C647   C646    1.414   1_556 A
C647   C648    1.393   .     A
C647   H431    1.113   .     S
C648   C643    1.401   1_556 A
C648   H432    1.116   .     S
C649   C650    1.415   .     A
C649   C654    1.395   .     A
C649   H433    1.114   .     S
C650   C651    1.395   .     A
C650   H434    1.115   .     S
C651   C652    1.396   .     A
C651   Si32    1.895   .     S
C652   C653    1.416   .     A
C652   H435    1.115   .     S
C653   C654    1.396   .     A
C653   H436    1.115   .     S
Si32   C658    1.885   .     S
Si32   C661    1.884   .     S
Si32   C672    1.885   .     S
C655   C656    1.412   .     A
C655   C660    1.412   .     A
C655   C757    1.454   .     S
C656   C657    1.394   .     A
C656   H437    1.113   .     S
C657   C658    1.400   .     A
C657   H438    1.115   .     S
C658   C659    1.401   .     A
C659   C660    1.394   .     A
C659   H439    1.116   .     S
C660   H440    1.113   .     S
C661   C662    1.401   .     A
C661   C666    1.401   .     A
C662   C663    1.393   .     A
C662   H441    1.116   .     S
C663   C664    1.413   .     A
C663   H442    1.114   .     S
C664   C665    1.412   .     A
C665   C666    1.394   .     A
C665   H443    1.113   .     S
C666   H444    1.116   .     S
C667   C668    1.393   .     A
C667   C672    1.400   .     A
C667   H445    1.116   .     S
C668   C669    1.413   .     A
C668   H446    1.113   .     S
C669   C670    1.412   .     A
C670   C671    1.394   .     A
C670   H447    1.113   .     S
C671   C672    1.400   .     A
C671   H448    1.115   .     S
C673   C674    1.412   .     A
C673   C678    1.413   .     A
C673   C2041   1.454   1_545 S
C674   C675    1.394   .     A
C674   H449    1.113   .     S
C675   C676    1.401   .     A
C675   H450    1.116   .     S
C676   C677    1.401   .     A
C676   Si33    1.883   .     S
C677   C678    1.393   .     A
C677   H451    1.116   .     S
C678   H452    1.113   .     S
C679   C680    1.400   .     A
C679   C684    1.394   .     A
C679   H453    1.116   .     S
C680   C681    1.400   .     A
C680   Si33    1.885   .     S
C681   C682    1.394   .     A
C681   H454    1.116   .     S
C682   C683    1.412   .     A
C682   H455    1.113   .     S
C683   C684    1.412   .     A
C683   C748    1.454   .     S
C684   H456    1.113   .     S
Si33   C685    1.884   .     S
Si33   C696    1.895   .     S
C685   C686    1.400   .     A
C685   C690    1.401   .     A
C686   C687    1.394   .     A
C686   H457    1.115   .     S
C687   C688    1.413   .     A
C687   H458    1.113   .     S
C688   C81     1.455   1_655 S
C688   C689    1.412   .     A
C689   C690    1.394   .     A
C689   H459    1.113   .     S
C690   H460    1.115   .     S
C691   C692    1.416   .     A
C691   C696    1.395   .     A
C691   H461    1.114   .     S
C692   C693    1.396   .     A
C692   H462    1.115   .     S
C693   C694    1.395   .     A
C693   Si34    1.896   .     S
C694   C695    1.416   .     A
C694   H463    1.115   .     S
C695   C696    1.396   .     A
C695   H464    1.115   .     S
Si34   C700    1.884   .     S
Si34   C703    1.884   .     S
Si34   C714    1.885   .     S
C697   C698    1.412   .     A
C697   C702    1.412   .     A
C697   C2311   1.453   1_545 S
C698   C699    1.394   .     A
C698   H465    1.114   .     S
C699   C700    1.400   .     A
C699   H466    1.116   .     S
C700   C701    1.401   .     A
C701   C702    1.394   .     A
C701   H467    1.115   .     S
C702   H468    1.113   .     S
C703   C704    1.401   .     A
C703   C708    1.400   .     A
C704   C705    1.393   .     A
C704   H469    1.116   .     S
C705   C706    1.413   .     A
C705   H470    1.113   .     S
C706   C707    1.413   .     A
C706   C1061   1.457   .     S
C707   C708    1.393   .     A
C707   H471    1.113   .     S
C708   H472    1.116   .     S
C709   C710    1.393   .     A
C709   C714    1.401   .     A
C709   H473    1.116   .     S
C710   C711    1.413   .     A
C710   H474    1.113   .     S
C711   C352    1.458   1_655 S
C711   C712    1.413   .     A
C712   C713    1.393   .     A
C712   H475    1.113   .     S
C713   C714    1.400   .     A
C713   H476    1.115   .     S
C715   C716    1.412   1_554 A
C715   C720    1.413   .     A
C715   C1201   1.453   1_554 S
C716   C715    1.412   1_556 A
C716   C717    1.394   1_556 A
C716   H477    1.113   .     S
C717   C716    1.394   1_554 A
C717   C718    1.401   .     A
C717   H478    1.115   1_554 S
C718   C719    1.400   .     A
C718   Si35    1.885   .     S
C719   C720    1.394   .     A
C719   H479    1.116   .     S
C720   H480    1.113   .     S
H478   C717    1.115   1_556 S
C721   C722    1.401   .     A
C721   C726    1.393   1_554 A
C721   H481    1.116   .     S
C722   C723    1.400   .     A
C722   Si35    1.884   .     S
C723   C724    1.393   .     A
C723   H482    1.116   .     S
C724   C725    1.413   .     A
C724   H483    1.113   .     S
C725   C726    1.413   1_554 A
C725   C1042   1.457   1_554 S
C726   C721    1.393   1_556 A
C726   C725    1.413   1_556 A
C726   H484    1.113   .     S
Si35   C727    1.884   .     S
Si35   C738    1.895   .     S
C727   C728    1.401   .     A
C727   C732    1.401   1_554 A
C728   C729    1.393   .     A
C728   H485    1.116   .     S
C729   C730    1.413   .     A
C729   H486    1.113   .     S
C730   C731    1.414   1_554 A
C730   C963    1.458   1_554 S
C731   C730    1.414   1_556 A
C731   C732    1.393   .     A
C731   H487    1.113   .     S
C732   C727    1.401   1_556 A
C732   H488    1.116   .     S
C733   C734    1.415   .     A
C733   C738    1.395   .     A
C733   H489    1.114   .     S
C734   C735    1.395   .     A
C734   H490    1.115   .     S
C735   C736    1.396   .     A
C735   Si36    1.895   .     S
C736   C737    1.416   .     A
C736   H491    1.115   .     S
C737   C738    1.396   .     A
C737   H492    1.115   .     S
Si36   C742    1.885   .     S
Si36   C745    1.884   .     S
Si36   C756    1.885   .     S
C739   C740    1.412   .     A
C739   C744    1.412   .     A
C739   C841    1.454   .     S
C740   C741    1.394   .     A
C740   H493    1.113   .     S
C741   C742    1.400   .     A
C741   H494    1.115   .     S
C742   C743    1.400   .     A
C743   C744    1.394   .     A
C743   H495    1.116   .     S
C744   H496    1.113   .     S
C745   C746    1.401   .     A
C745   C750    1.401   .     A
C746   C747    1.394   .     A
C746   H497    1.116   .     S
C747   C748    1.412   .     A
C747   H498    1.113   .     S
C748   C749    1.412   .     A
C749   C750    1.394   .     A
C749   H499    1.113   .     S
C750   H500    1.116   .     S
C751   C752    1.394   .     A
C751   C756    1.400   .     A
C751   H501    1.115   .     S
C752   C753    1.412   .     A
C752   H502    1.113   .     S
C753   C754    1.412   .     A
C754   C755    1.394   .     A
C754   H503    1.113   .     S
C755   C756    1.399   .     A
C755   H504    1.115   .     S
C757   C758    1.412   .     A
C757   C762    1.413   .     A
C758   C759    1.394   .     A
C758   H505    1.113   .     S
C759   C760    1.401   .     A
C759   H506    1.116   .     S
C760   C761    1.401   .     A
C760   Si37    1.883   .     S
C761   C762    1.394   .     A
C761   H507    1.116   .     S
C762   H508    1.113   .     S
C763   C764    1.400   .     A
C763   C768    1.394   .     A
C763   H509    1.116   .     S
C764   C765    1.400   .     A
C764   Si37    1.885   .     S
C765   C766    1.394   .     A
C765   H510    1.116   .     S
C766   C767    1.412   .     A
C766   H511    1.114   .     S
C767   C768    1.412   .     A
C767   C832    1.454   .     S
C768   H512    1.113   .     S
Si37   C769    1.884   .     S
Si37   C780    1.895   .     S
C769   C770    1.401   .     A
C769   C774    1.401   .     A
C770   C771    1.394   .     A
C770   H513    1.115   .     S
C771   C772    1.413   .     A
C771   H514    1.112   .     S
C772   C773    1.413   .     A
C772   C921    1.455   .     S
C773   C774    1.394   .     A
C773   H515    1.113   .     S
C774   H516    1.116   .     S
C775   C776    1.416   .     A
C775   C780    1.395   .     A
C775   H517    1.114   .     S
C776   C777    1.395   .     A
C776   H518    1.115   .     S
C777   C778    1.395   .     A
C777   Si38    1.896   .     S
C778   C779    1.416   .     A
C778   H519    1.115   .     S
C779   C780    1.396   .     A
C779   H520    1.115   .     S
Si38   C784    1.884   .     S
Si38   C787    1.883   .     S
Si38   C798    1.885   .     S
C781   C782    1.412   .     A
C781   C786    1.412   .     A
C781   C967    1.453   .     S
C782   C783    1.394   .     A
C782   H521    1.114   .     S
C783   C784    1.400   .     A
C783   H522    1.116   .     S
C784   C785    1.400   .     A
C785   C786    1.394   .     A
C785   H523    1.115   .     S
C786   H524    1.113   .     S
C787   C788    1.401   .     A
C787   C792    1.400   .     A
C788   C789    1.393   .     A
C788   H525    1.116   .     S
C789   C790    1.413   .     A
C789   H526    1.113   .     S
C790   C791    1.413   .     A
C790   C1145   1.457   .     S
C791   C792    1.394   .     A
C791   H527    1.113   .     S
C792   H528    1.116   .     S
C793   C794    1.394   .     A
C793   C798    1.400   .     A
C793   H529    1.115   .     S
C794   C795    1.413   .     A
C794   H530    1.113   .     S
C795   C796    1.413   .     A
C795   C1234   1.458   .     S
C796   C797    1.393   .     A
C796   H531    1.113   .     S
C797   C798    1.400   .     A
C797   H532    1.115   .     S
C799   C800    1.412   1_554 A
C799   C804    1.412   .     A
C799   C2083   1.452   1_554 S
C800   C799    1.412   1_556 A
C800   C801    1.394   1_556 A
C800   H533    1.113   .     S
C801   C800    1.394   1_554 A
C801   C802    1.401   .     A
C801   H534    1.115   1_554 S
C802   C803    1.400   .     A
C802   Si39    1.884   .     S
C803   C804    1.394   .     A
C803   H535    1.116   .     S
C804   H536    1.114   .     S
H534   C801    1.115   1_556 S
C805   C806    1.401   .     A
C805   C810    1.393   1_554 A
C805   H537    1.115   .     S
C806   C807    1.400   .     A
C806   Si39    1.884   .     S
C807   C808    1.393   .     A
C807   H538    1.116   .     S
C808   C809    1.413   .     A
C808   H539    1.113   .     S
C809   C810    1.413   1_554 A
C809   C1126   1.457   1_554 S
C810   C805    1.393   1_556 A
C810   C809    1.413   1_556 A
C810   H540    1.113   .     S
Si39   C811    1.884   .     S
Si39   C822    1.895   .     S
C811   C812    1.401   .     A
C811   C816    1.401   1_554 A
C812   C813    1.394   .     A
C812   H541    1.116   .     S
C813   C814    1.413   .     A
C813   H542    1.113   .     S
C814   C585    1.458   1_554 S
C814   C815    1.414   1_554 A
C815   C814    1.414   1_556 A
C815   C816    1.393   .     A
C815   H543    1.113   .     S
C816   C811    1.401   1_556 A
C816   H544    1.116   .     S
C817   C818    1.415   .     A
C817   C822    1.395   .     A
C817   H545    1.114   .     S
C818   C819    1.395   .     A
C818   H546    1.115   .     S
C819   C820    1.396   .     A
C819   Si40    1.895   .     S
C820   C821    1.416   .     A
C820   H547    1.115   .     S
C821   C822    1.396   .     A
C821   H548    1.115   .     S
Si40   C826    1.885   .     S
Si40   C829    1.884   .     S
Si40   C840    1.885   .     S
C823   C824    1.412   .     A
C823   C828    1.412   .     A
C823   C1765   1.453   .     S
C824   C825    1.394   .     A
C824   H549    1.113   .     S
C825   C826    1.400   .     A
C825   H550    1.115   .     S
C826   C827    1.400   .     A
C827   C828    1.394   .     A
C827   H551    1.116   .     S
C828   H552    1.113   .     S
C829   C830    1.401   .     A
C829   C834    1.401   .     A
C830   C831    1.394   .     A
C830   H553    1.115   .     S
C831   C832    1.413   .     A
C831   H554    1.113   .     S
C832   C833    1.412   .     A
C833   C834    1.394   .     A
C833   H555    1.114   .     S
C834   H556    1.116   .     S
C835   C836    1.394   .     A
C835   C840    1.400   .     A
C835   H557    1.116   .     S
C836   C837    1.413   .     A
C836   H558    1.113   .     S
C837   C838    1.412   .     A
C838   C839    1.394   .     A
C838   H559    1.113   .     S
C839   C840    1.400   .     A
C839   H560    1.115   .     S
C841   C842    1.412   .     A
C841   C846    1.413   .     A
C842   C843    1.394   .     A
C842   H561    1.114   .     S
C843   C844    1.400   .     A
C843   H562    1.116   .     S
C844   C845    1.401   .     A
C844   Si41    1.884   .     S
C845   C846    1.394   .     A
C845   H563    1.116   .     S
C846   H564    1.113   .     S
C847   C848    1.400   .     A
C847   C852    1.394   .     A
C847   H565    1.115   .     S
C848   C849    1.400   .     A
C848   Si41    1.885   .     S
C849   C850    1.394   .     A
C849   H566    1.116   .     S
C850   C851    1.412   .     A
C850   H567    1.113   .     S
C851   C852    1.412   .     A
C851   C916    1.454   .     S
C852   H568    1.113   .     S
Si41   C853    1.884   .     S
Si41   C864    1.895   .     S
C853   C854    1.400   .     A
C853   C858    1.401   .     A
C854   C855    1.394   .     A
C854   H569    1.115   .     S
C855   C856    1.413   .     A
C855   H570    1.113   .     S
C856   C249    1.455   1_655 S
C856   C857    1.413   .     A
C857   C858    1.393   .     A
C857   H571    1.113   .     S
C858   H572    1.116   .     S
C859   C860    1.416   .     A
C859   C864    1.395   .     A
C859   H573    1.115   .     S
C860   C861    1.395   .     A
C860   H574    1.115   .     S
C861   C862    1.395   .     A
C861   Si42    1.896   .     S
C862   C863    1.416   .     A
C862   H575    1.115   .     S
C863   C864    1.396   .     A
C863   H576    1.115   .     S
Si42   C868    1.884   .     S
Si42   C871    1.883   .     S
Si42   C882    1.885   .     S
C865   C866    1.412   .     A
C865   C870    1.412   .     A
C865   C1051   1.453   .     S
C866   C867    1.394   .     A
C866   H577    1.113   .     S
C867   C868    1.401   .     A
C867   H578    1.116   .     S
C868   C869    1.401   .     A
C869   C870    1.394   .     A
C869   H579    1.115   .     S
C870   H580    1.114   .     S
C871   C872    1.401   .     A
C871   C876    1.401   .     A
C872   C873    1.393   .     A
C872   H581    1.116   .     S
C873   C874    1.413   .     A
C873   H582    1.113   .     S
C874   C875    1.414   .     A
C874   C1229   1.456   .     S
C875   C876    1.393   .     A
C875   H583    1.113   .     S
C876   H584    1.116   .     S
C877   C878    1.393   .     A
C877   C882    1.400   .     A
C877   H585    1.116   .     S
C878   C879    1.413   .     A
C878   H586    1.113   .     S
C879   C520    1.458   1_655 S
C879   C880    1.413   .     A
C880   C881    1.393   .     A
C880   H587    1.113   .     S
C881   C882    1.400   .     A
C881   H588    1.115   .     S
C883   C884    1.412   1_554 A
C883   C888    1.412   .     A
C883   C2125   1.453   1_554 S
C884   C883    1.412   1_556 A
C884   C885    1.394   1_556 A
C884   H589    1.113   .     S
C885   C884    1.394   1_554 A
C885   C886    1.401   .     A
C885   H590    1.115   1_554 S
C886   C887    1.400   .     A
C886   Si43    1.884   .     S
C887   C888    1.394   .     A
C887   H591    1.116   .     S
C888   H592    1.113   .     S
H590   C885    1.115   1_556 S
C889   C890    1.401   .     A
C889   C894    1.394   1_554 A
C889   H593    1.115   .     S
C890   C891    1.400   .     A
C890   Si43    1.884   .     S
C891   C892    1.394   .     A
C891   H594    1.116   .     S
C892   C893    1.413   .     A
C892   H595    1.113   .     S
C893   C894    1.413   1_554 A
C893   C1210   1.457   1_554 S
C894   C893    1.413   1_556 A
C894   C889    1.394   1_556 A
C894   H596    1.113   .     S
Si43   C895    1.884   .     S
Si43   C906    1.895   .     S
C895   C896    1.401   .     A
C895   C900    1.400   1_554 A
C896   C897    1.393   .     A
C896   H597    1.116   .     S
C897   C898    1.413   .     A
C897   H598    1.113   .     S
C898   C899    1.414   1_554 A
C898   C1131   1.458   1_554 S
C899   C898    1.414   1_556 A
C899   C900    1.393   .     A
C899   H599    1.113   .     S
C900   C895    1.400   1_556 A
C900   H600    1.117   .     S
C901   C902    1.415   .     A
C901   C906    1.395   .     A
C901   H601    1.114   .     S
C902   C903    1.395   .     A
C902   H602    1.115   .     S
C903   C904    1.396   .     A
C903   Si44    1.895   .     S
C904   C905    1.416   .     A
C904   H603    1.115   .     S
C905   C906    1.396   .     A
C905   H604    1.115   .     S
Si44   C910    1.885   .     S
Si44   C913    1.884   .     S
Si44   C924    1.885   .     S
C907   C908    1.412   .     A
C907   C912    1.412   .     A
C907   C1807   1.454   .     S
C908   C909    1.394   .     A
C908   H605    1.113   .     S
C909   C910    1.400   .     A
C909   H606    1.115   .     S
C910   C911    1.401   .     A
C911   C912    1.394   .     A
C911   H607    1.116   .     S
C912   H608    1.113   .     S
C913   C914    1.401   .     A
C913   C918    1.401   .     A
C914   C915    1.394   .     A
C914   H609    1.115   .     S
C915   C916    1.412   .     A
C915   H610    1.113   .     S
C916   C917    1.412   .     A
C917   C918    1.394   .     A
C917   H611    1.114   .     S
C918   H612    1.116   .     S
C919   C920    1.393   .     A
C919   C924    1.400   .     A
C919   H613    1.116   .     S
C920   C921    1.413   .     A
C920   H614    1.113   .     S
C921   C922    1.412   .     A
C922   C923    1.394   .     A
C922   H615    1.113   .     S
C923   C924    1.400   .     A
C923   H616    1.115   .     S
C925   C926    1.412   .     A
C925   C930    1.413   .     A
C925   C2251   1.454   1_545 S
C926   C927    1.394   .     A
C926   H617    1.114   .     S
C927   C928    1.401   .     A
C927   H618    1.115   .     S
C928   C929    1.401   .     A
C928   Si45    1.883   .     S
C929   C930    1.394   .     A
C929   H619    1.116   .     S
C930   H620    1.113   .     S
C931   C932    1.400   .     A
C931   C936    1.394   .     A
C931   H621    1.115   .     S
C932   C933    1.400   .     A
C932   Si45    1.885   .     S
C933   C934    1.394   .     A
C933   H622    1.116   .     S
C934   C935    1.412   .     A
C934   H623    1.113   .     S
C935   C936    1.412   .     A
C935   C1000   1.455   .     S
C936   H624    1.113   .     S
Si45   C937    1.884   .     S
Si45   C948    1.895   .     S
C937   C938    1.401   .     A
C937   C942    1.401   .     A
C938   C939    1.394   .     A
C938   H625    1.115   .     S
C939   C940    1.413   .     A
C939   H626    1.113   .     S
C940   C941    1.413   .     A
C940   C1089   1.455   .     S
C941   C942    1.394   .     A
C941   H627    1.113   .     S
C942   H628    1.115   .     S
C943   C944    1.416   .     A
C943   C948    1.395   .     A
C943   H629    1.115   .     S
C944   C945    1.396   .     A
C944   H630    1.115   .     S
C945   C946    1.395   .     A
C945   Si46    1.895   .     S
C946   C947    1.416   .     A
C946   H631    1.115   .     S
C947   C948    1.396   .     A
C947   H632    1.115   .     S
Si46   C952    1.884   .     S
Si46   C955    1.885   .     S
Si46   C966    1.884   .     S
C949   C950    1.413   1_556 A
C949   C954    1.412   .     A
C949   C1933   1.453   1_546 S
C950   C949    1.413   1_554 A
C950   C951    1.394   .     A
C950   H633    1.114   .     S
C951   C952    1.400   1_554 A
C951   H634    1.115   .     S
C952   C951    1.400   1_556 A
C952   C953    1.400   .     A
C953   C954    1.394   .     A
C953   H635    1.116   .     S
C954   H636    1.114   .     S
C955   C956    1.401   .     A
C955   C960    1.400   .     A
C956   C957    1.393   .     A
C956   H637    1.116   .     S
C957   C958    1.413   .     A
C957   H638    1.113   .     S
C958   C641    1.456   1_556 S
C958   C959    1.413   .     A
C959   C960    1.393   .     A
C959   H639    1.113   .     S
C960   H640    1.116   .     S
C961   C962    1.393   .     A
C961   C966    1.401   1_554 A
C961   H641    1.116   .     S
C962   C963    1.413   1_554 A
C962   H642    1.113   .     S
C963   C962    1.413   1_556 A
C963   C730    1.458   1_556 S
C963   C964    1.413   .     A
C964   C965    1.393   .     A
C964   H643    1.113   .     S
C965   C966    1.401   .     A
C965   H644    1.115   .     S
C966   C961    1.401   1_556 A
C967   C968    1.412   .     A
C967   C972    1.413   .     A
C968   C969    1.394   .     A
C968   H645    1.113   .     S
C969   C970    1.401   .     A
C969   H646    1.115   .     S
C970   C971    1.400   .     A
C970   Si47    1.885   .     S
C971   C972    1.394   .     A
C971   H647    1.115   .     S
C972   H648    1.113   .     S
C973   C974    1.401   .     A
C973   C978    1.393   .     A
C973   H649    1.115   .     S
C974   C975    1.400   .     A
C974   Si47    1.884   .     S
C975   C976    1.393   .     A
C975   H650    1.116   .     S
C976   C977    1.414   .     A
C976   H651    1.113   .     S
C977   C978    1.413   .     A
C978   H652    1.113   .     S
Si47   C979    1.884   .     S
Si47   C990    1.895   .     S
C979   C980    1.400   .     A
C979   C984    1.401   .     A
C980   C981    1.394   .     A
C980   H653    1.116   .     S
C981   C982    1.413   .     A
C981   H654    1.113   .     S
C982   C983    1.414   .     A
C983   C984    1.393   .     A
C983   H655    1.113   .     S
C984   H656    1.116   .     S
C985   C986    1.415   .     A
C985   C990    1.395   .     A
C985   H657    1.114   .     S
C986   C987    1.395   .     A
C986   H658    1.115   .     S
C987   C988    1.396   .     A
C987   Si48    1.895   .     S
C988   C989    1.416   .     A
C988   H659    1.115   .     S
C989   C990    1.396   .     A
C989   H660    1.115   .     S
Si48   C994    1.885   .     S
Si48   C997    1.884   .     S
Si48   C1008   1.885   .     S
C991   C992    1.412   .     A
C991   C996    1.412   .     A
C991   C1093   1.454   .     S
C992   C993    1.394   .     A
C992   H661    1.113   .     S
C993   C994    1.400   .     A
C993   H662    1.115   .     S
C994   C995    1.401   .     A
C995   C996    1.394   .     A
C995   H663    1.116   .     S
C996   H664    1.113   .     S
C997   C998    1.401   .     A
C997   C1002   1.401   .     A
C998   C999    1.393   .     A
C998   H665    1.116   .     S
C999   C1000   1.412   .     A
C999   H666    1.114   .     S
C1000  C1001   1.412   .     A
C1001  C1002   1.394   .     A
C1001  H667    1.113   .     S
C1002  H668    1.116   .     S
C1003  C1004   1.393   .     A
C1003  C1008   1.400   .     A
C1003  H669    1.116   .     S
C1004  C1005   1.413   .     A
C1004  H670    1.113   .     S
C1005  C1006   1.412   .     A
C1006  C1007   1.394   .     A
C1006  H671    1.113   .     S
C1007  C1008   1.400   .     A
C1007  H672    1.115   .     S
C1009  C1010   1.412   .     A
C1009  C1014   1.413   .     A
C1009  C2335   1.454   1_545 S
C1010  C1011   1.394   .     A
C1010  H673    1.113   .     S
C1011  C1012   1.400   .     A
C1011  H674    1.116   .     S
C1012  C1013   1.401   .     A
C1012  Si49    1.884   .     S
C1013  C1014   1.393   .     A
C1013  H675    1.116   .     S
C1014  H676    1.113   .     S
C1015  C1016   1.400   .     A
C1015  C1020   1.394   .     A
C1015  H677    1.116   .     S
C1016  C1017   1.400   .     A
C1016  Si49    1.885   .     S
C1017  C1018   1.394   .     A
C1017  H678    1.116   .     S
C1018  C1019   1.412   .     A
C1018  H679    1.113   .     S
C1019  C1020   1.412   .     A
C1019  C1084   1.454   .     S
C1020  H680    1.113   .     S
Si49   C1021   1.884   .     S
Si49   C1032   1.895   .     S
C1021  C1022   1.400   .     A
C1021  C1026   1.400   .     A
C1022  C1023   1.394   .     A
C1022  H681    1.115   .     S
C1023  C1024   1.413   .     A
C1023  H682    1.113   .     S
C1024  C375    1.455   1_655 S
C1024  C1025   1.412   .     A
C1025  C1026   1.394   .     A
C1025  H683    1.113   .     S
C1026  H684    1.116   .     S
C1027  C1028   1.416   .     A
C1027  C1032   1.395   .     A
C1027  H685    1.114   .     S
C1028  C1029   1.396   .     A
C1028  H686    1.115   .     S
C1029  C1030   1.395   .     A
C1029  Si50    1.895   .     S
C1030  C1031   1.416   .     A
C1030  H687    1.115   .     S
C1031  C1032   1.396   .     A
C1031  H688    1.115   .     S
Si50   C1036   1.884   .     S
Si50   C1039   1.884   .     S
Si50   C1050   1.885   .     S
C1033  C1034   1.412   1_556 A
C1033  C1038   1.412   .     A
C1033  C2017   1.453   1_546 S
C1034  C1033   1.412   1_554 A
C1034  C1035   1.394   .     A
C1034  H689    1.114   .     S
C1035  C1036   1.400   1_554 A
C1035  H690    1.115   .     S
C1036  C1035   1.400   1_556 A
C1036  C1037   1.401   .     A
C1037  C1038   1.394   .     A
C1037  H691    1.116   .     S
C1038  H692    1.113   .     S
C1039  C1040   1.401   .     A
C1039  C1044   1.400   .     A
C1040  C1041   1.393   .     A
C1040  H693    1.116   .     S
C1041  C1042   1.413   .     A
C1041  H694    1.113   .     S
C1042  C725    1.457   1_556 S
C1042  C1043   1.413   .     A
C1043  C1044   1.393   .     A
C1043  H695    1.113   .     S
C1044  H696    1.116   .     S
C1045  C1046   1.393   .     A
C1045  C1050   1.400   1_554 A
C1045  H697    1.116   .     S
C1046  C1047   1.414   1_554 A
C1046  H698    1.113   .     S
C1047  C58     1.458   1_656 S
C1047  C1046   1.414   1_556 A
C1047  C1048   1.413   .     A
C1048  C1049   1.393   .     A
C1048  H699    1.113   .     S
C1049  C1050   1.400   .     A
C1049  H700    1.115   .     S
C1050  C1045   1.400   1_556 A
C1051  C1052   1.412   .     A
C1051  C1056   1.413   .     A
C1052  C1053   1.394   .     A
C1052  H701    1.114   .     S
C1053  C1054   1.401   .     A
C1053  H702    1.115   .     S
C1054  C1055   1.400   .     A
C1054  Si51    1.885   .     S
C1055  C1056   1.394   .     A
C1055  H703    1.116   .     S
C1056  H704    1.113   .     S
C1057  C1058   1.401   .     A
C1057  C1062   1.393   .     A
C1057  H705    1.116   .     S
C1058  C1059   1.400   .     A
C1058  Si51    1.884   .     S
C1059  C1060   1.393   .     A
C1059  H706    1.116   .     S
C1060  C1061   1.413   .     A
C1060  H707    1.113   .     S
C1061  C1062   1.413   .     A
C1062  H708    1.113   .     S
Si51   C1063   1.884   .     S
Si51   C1074   1.895   .     S
C1063  C1064   1.401   .     A
C1063  C1068   1.401   .     A
C1064  C1065   1.393   .     A
C1064  H709    1.116   .     S
C1065  C1066   1.413   .     A
C1065  H710    1.113   .     S
C1066  C1067   1.414   .     A
C1067  C1068   1.393   .     A
C1067  H711    1.113   .     S
C1068  H712    1.116   .     S
C1069  C1070   1.415   .     A
C1069  C1074   1.395   .     A
C1069  H713    1.114   .     S
C1070  C1071   1.395   .     A
C1070  H714    1.115   .     S
C1071  C1072   1.396   .     A
C1071  Si52    1.895   .     S
C1072  C1073   1.416   .     A
C1072  H715    1.115   .     S
C1073  C1074   1.396   .     A
C1073  H716    1.115   .     S
Si52   C1078   1.885   .     S
Si52   C1081   1.884   .     S
Si52   C1092   1.885   .     S
C1075  C1076   1.412   .     A
C1075  C1080   1.412   .     A
C1075  C1177   1.454   .     S
C1076  C1077   1.394   .     A
C1076  H717    1.113   .     S
C1077  C1078   1.400   .     A
C1077  H718    1.115   .     S
C1078  C1079   1.400   .     A
C1079  C1080   1.394   .     A
C1079  H719    1.116   .     S
C1080  H720    1.113   .     S
C1081  C1082   1.401   .     A
C1081  C1086   1.401   .     A
C1082  C1083   1.394   .     A
C1082  H721    1.116   .     S
C1083  C1084   1.412   .     A
C1083  H722    1.113   .     S
C1084  C1085   1.412   .     A
C1085  C1086   1.394   .     A
C1085  H723    1.113   .     S
C1086  H724    1.116   .     S
C1087  C1088   1.394   .     A
C1087  C1092   1.400   .     A
C1087  H725    1.116   .     S
C1088  C1089   1.412   .     A
C1088  H726    1.113   .     S
C1089  C1090   1.412   .     A
C1090  C1091   1.394   .     A
C1090  H727    1.113   .     S
C1091  C1092   1.399   .     A
C1091  H728    1.115   .     S
C1093  C1094   1.412   .     A
C1093  C1098   1.413   .     A
C1094  C1095   1.394   .     A
C1094  H729    1.113   .     S
C1095  C1096   1.401   .     A
C1095  H730    1.115   .     S
C1096  C1097   1.401   .     A
C1096  Si53    1.883   .     S
C1097  C1098   1.394   .     A
C1097  H731    1.116   .     S
C1098  H732    1.113   .     S
C1099  C1100   1.400   .     A
C1099  C1104   1.394   .     A
C1099  H733    1.115   .     S
C1100  C1101   1.400   .     A
C1100  Si53    1.885   .     S
C1101  C1102   1.394   .     A
C1101  H734    1.116   .     S
C1102  C1103   1.412   .     A
C1102  H735    1.113   .     S
C1103  C1104   1.412   .     A
C1103  C1168   1.454   .     S
C1104  H736    1.113   .     S
Si53   C1105   1.884   .     S
Si53   C1116   1.895   .     S
C1105  C1106   1.400   .     A
C1105  C1110   1.401   .     A
C1106  C1107   1.394   .     A
C1106  H737    1.115   .     S
C1107  C1108   1.412   .     A
C1107  H738    1.113   .     S
C1108  C1109   1.413   .     A
C1108  C1257   1.455   .     S
C1109  C1110   1.394   .     A
C1109  H739    1.113   .     S
C1110  H740    1.115   .     S
C1111  C1112   1.416   .     A
C1111  C1116   1.395   .     A
C1111  H741    1.114   .     S
C1112  C1113   1.395   .     A
C1112  H742    1.115   .     S
C1113  C1114   1.395   .     A
C1113  Si54    1.896   .     S
C1114  C1115   1.416   .     A
C1114  H743    1.115   .     S
C1115  C1116   1.395   .     A
C1115  H744    1.115   .     S
Si54   C1120   1.884   .     S
Si54   C1123   1.883   .     S
Si54   C1134   1.885   .     S
C1117  C631    1.453   1_556 S
C1117  C1118   1.412   1_556 A
C1117  C1122   1.412   .     A
C1118  C1117   1.412   1_554 A
C1118  C1119   1.394   .     A
C1118  H745    1.113   .     S
C1119  C1120   1.400   1_554 A
C1119  H746    1.116   .     S
C1120  C1119   1.400   1_556 A
C1120  C1121   1.400   .     A
C1121  C1122   1.394   .     A
C1121  H747    1.116   .     S
C1122  H748    1.114   .     S
C1123  C1124   1.401   .     A
C1123  C1128   1.400   .     A
C1124  C1125   1.393   .     A
C1124  H749    1.116   .     S
C1125  C1126   1.413   .     A
C1125  H750    1.113   .     S
C1126  C809    1.457   1_556 S
C1126  C1127   1.413   .     A
C1127  C1128   1.394   .     A
C1127  H751    1.113   .     S
C1128  H752    1.116   .     S
C1129  C1130   1.394   .     A
C1129  C1134   1.400   1_554 A
C1129  H753    1.116   .     S
C1130  C1131   1.413   1_554 A
C1130  H754    1.113   .     S
C1131  C898    1.458   1_556 S
C1131  C1130   1.413   1_556 A
C1131  C1132   1.413   .     A
C1132  C1133   1.393   .     A
C1132  H755    1.113   .     S
C1133  C1134   1.400   .     A
C1133  H756    1.115   .     S
C1134  C1129   1.400   1_556 A
C1135  C1136   1.412   .     A
C1135  C1140   1.412   .     A
C1135  C1789   1.453   .     S
C1136  C1137   1.394   .     A
C1136  H757    1.113   .     S
C1137  C1138   1.400   .     A
C1137  H758    1.115   .     S
C1138  C1139   1.400   .     A
C1138  Si55    1.884   .     S
C1139  C1140   1.394   .     A
C1139  H759    1.116   .     S
C1140  H760    1.113   .     S
C1141  C1142   1.401   .     A
C1141  C1146   1.393   .     A
C1141  H761    1.115   .     S
C1142  C1143   1.401   .     A
C1142  Si55    1.884   .     S
C1143  C1144   1.393   .     A
C1143  H762    1.116   .     S
C1144  C1145   1.414   .     A
C1144  H763    1.113   .     S
C1145  C1146   1.413   .     A
C1146  H764    1.113   .     S
Si55   C1147   1.884   .     S
Si55   C1158   1.895   .     S
C1147  C1148   1.401   .     A
C1147  C1152   1.401   .     A
C1148  C1149   1.393   .     A
C1148  H765    1.115   .     S
C1149  C1150   1.413   .     A
C1149  H766    1.113   .     S
C1150  C1151   1.414   .     A
C1151  C1152   1.392   .     A
C1151  H767    1.113   .     S
C1152  H768    1.116   .     S
C1153  C1154   1.416   .     A
C1153  C1158   1.394   .     A
C1153  H769    1.114   .     S
C1154  C1155   1.396   .     A
C1154  H770    1.115   .     S
C1155  C1156   1.396   .     A
C1155  Si56    1.894   .     S
C1156  C1157   1.416   .     A
C1156  H771    1.115   .     S
C1157  C1158   1.396   .     A
C1157  H772    1.115   .     S
Si56   C1162   1.885   .     S
Si56   C1165   1.884   .     S
Si56   C1176   1.885   .     S
C1159  C1160   1.412   .     A
C1159  C1164   1.412   .     A
C1159  C2059   1.454   .     S
C1160  C1161   1.394   .     A
C1160  H773    1.113   .     S
C1161  C1162   1.400   .     A
C1161  H774    1.115   .     S
C1162  C1163   1.400   .     A
C1163  C1164   1.394   .     A
C1163  H775    1.115   .     S
C1164  H776    1.113   .     S
C1165  C1166   1.401   .     A
C1165  C1170   1.400   .     A
C1166  C1167   1.394   .     A
C1166  H777    1.116   .     S
C1167  C1168   1.412   .     A
C1167  H778    1.113   .     S
C1168  C1169   1.412   .     A
C1169  C1170   1.394   .     A
C1169  H779    1.113   .     S
C1170  H780    1.116   .     S
C1171  C1172   1.394   .     A
C1171  C1176   1.400   .     A
C1171  H781    1.115   .     S
C1172  C1173   1.412   .     A
C1172  H782    1.113   .     S
C1173  C1174   1.412   .     A
C1174  C1175   1.394   .     A
C1174  H783    1.113   .     S
C1175  C1176   1.400   .     A
C1175  H784    1.115   .     S
C1177  C1178   1.413   .     A
C1177  C1182   1.413   .     A
C1178  C1179   1.394   .     A
C1178  H785    1.113   .     S
C1179  C1180   1.400   .     A
C1179  H786    1.116   .     S
C1180  C1181   1.401   .     A
C1180  Si57    1.884   .     S
C1181  C1182   1.393   .     A
C1181  H787    1.116   .     S
C1182  H788    1.113   .     S
C1183  C1184   1.400   .     A
C1183  C1188   1.394   .     A
C1183  H789    1.115   .     S
C1184  C1185   1.400   .     A
C1184  Si57    1.885   .     S
C1185  C1186   1.394   .     A
C1185  H790    1.116   .     S
C1186  C1187   1.412   .     A
C1186  H791    1.113   .     S
C1187  C1188   1.412   .     A
C1187  C1252   1.454   .     S
C1188  H792    1.113   .     S
Si57   C1189   1.884   .     S
Si57   C1200   1.895   .     S
C1189  C1190   1.400   .     A
C1189  C1194   1.401   .     A
C1190  C1191   1.394   .     A
C1190  H793    1.115   .     S
C1191  C1192   1.413   .     A
C1191  H794    1.113   .     S
C1192  C543    1.455   1_655 S
C1192  C1193   1.413   .     A
C1193  C1194   1.393   .     A
C1193  H795    1.113   .     S
C1194  H796    1.116   .     S
C1195  C1196   1.416   .     A
C1195  C1200   1.395   .     A
C1195  H797    1.115   .     S
C1196  C1197   1.395   .     A
C1196  H798    1.115   .     S
C1197  C1198   1.395   .     A
C1197  Si58    1.895   .     S
C1198  C1199   1.416   .     A
C1198  H799    1.115   .     S
C1199  C1200   1.396   .     A
C1199  H800    1.115   .     S
Si58   C1204   1.884   .     S
Si58   C1207   1.884   .     S
Si58   C1218   1.885   .     S
C1201  C715    1.453   1_556 S
C1201  C1202   1.412   1_556 A
C1201  C1206   1.412   .     A
C1202  C1201   1.412   1_554 A
C1202  C1203   1.394   .     A
C1202  H801    1.113   .     S
C1203  C1204   1.400   1_554 A
C1203  H802    1.116   .     S
C1204  C1203   1.400   1_556 A
C1204  C1205   1.401   .     A
C1205  C1206   1.394   .     A
C1205  H803    1.116   .     S
C1206  H804    1.113   .     S
C1207  C1208   1.401   .     A
C1207  C1212   1.400   .     A
C1208  C1209   1.393   .     A
C1208  H805    1.116   .     S
C1209  C1210   1.413   .     A
C1209  H806    1.113   .     S
C1210  C893    1.457   1_556 S
C1210  C1211   1.414   .     A
C1211  C1212   1.393   .     A
C1211  H807    1.113   .     S
C1212  H808    1.116   .     S
C1213  C1214   1.393   .     A
C1213  C1218   1.400   1_554 A
C1213  H809    1.116   .     S
C1214  C1215   1.413   1_554 A
C1214  H810    1.113   .     S
C1215  C1214   1.413   1_556 A
C1215  C226    1.458   1_656 S
C1215  C1216   1.413   .     A
C1216  C1217   1.393   .     A
C1216  H811    1.113   .     S
C1217  C1218   1.400   .     A
C1217  H812    1.115   .     S
C1218  C1213   1.400   1_556 A
C1219  C1220   1.412   .     A
C1219  C1224   1.412   .     A
C1219  C1831   1.453   .     S
C1220  C1221   1.394   .     A
C1220  H813    1.114   .     S
C1221  C1222   1.401   .     A
C1221  H814    1.115   .     S
C1222  C1223   1.400   .     A
C1222  Si59    1.884   .     S
C1223  C1224   1.394   .     A
C1223  H815    1.116   .     S
C1224  H816    1.113   .     S
C1225  C1226   1.401   .     A
C1225  C1230   1.394   .     A
C1225  H817    1.115   .     S
C1226  C1227   1.400   .     A
C1226  Si59    1.884   .     S
C1227  C1228   1.394   .     A
C1227  H818    1.116   .     S
C1228  C1229   1.414   .     A
C1228  H819    1.113   .     S
C1229  C1230   1.413   .     A
C1230  H820    1.113   .     S
Si59   C1231   1.884   .     S
Si59   C1242   1.895   .     S
C1231  C1232   1.400   .     A
C1231  C1236   1.401   .     A
C1232  C1233   1.394   .     A
C1232  H821    1.116   .     S
C1233  C1234   1.413   .     A
C1233  H822    1.113   .     S
C1234  C1235   1.414   .     A
C1235  C1236   1.393   .     A
C1235  H823    1.113   .     S
C1236  H824    1.116   .     S
C1237  C1238   1.415   .     A
C1237  C1242   1.395   .     A
C1237  H825    1.114   .     S
C1238  C1239   1.395   .     A
C1238  H826    1.115   .     S
C1239  C1240   1.396   .     A
C1239  Si60    1.895   .     S
C1240  C1241   1.416   .     A
C1240  H827    1.115   .     S
C1241  C1242   1.396   .     A
C1241  H828    1.115   .     S
Si60   C1246   1.885   .     S
Si60   C1249   1.884   .     S
Si60   C1260   1.885   .     S
C1243  C1244   1.412   .     A
C1243  C1248   1.412   .     A
C1243  C2101   1.454   .     S
C1244  C1245   1.394   .     A
C1244  H829    1.113   .     S
C1245  C1246   1.400   .     A
C1245  H830    1.115   .     S
C1246  C1247   1.401   .     A
C1247  C1248   1.394   .     A
C1247  H831    1.116   .     S
C1248  H832    1.113   .     S
C1249  C1250   1.401   .     A
C1249  C1254   1.401   .     A
C1250  C1251   1.394   .     A
C1250  H833    1.115   .     S
C1251  C1252   1.412   .     A
C1251  H834    1.113   .     S
C1252  C1253   1.412   .     A
C1253  C1254   1.394   .     A
C1253  H835    1.114   .     S
C1254  H836    1.116   .     S
C1255  C1256   1.393   .     A
C1255  C1260   1.400   .     A
C1255  H837    1.116   .     S
C1256  C1257   1.413   .     A
C1256  H838    1.113   .     S
C1257  C1258   1.412   .     A
C1258  C1259   1.394   .     A
C1258  H839    1.113   .     S
C1259  C1260   1.400   .     A
C1259  H840    1.115   .     S
C1261  C1262   1.413   .     A
C1261  C1266   1.413   .     A
C1262  C1263   1.394   .     A
C1262  H841    1.114   .     S
C1263  C1264   1.403   .     A
C1263  H842    1.115   .     S
C1264  C1265   1.403   .     A
C1264  Si61    1.876   .     S
C1265  C1266   1.393   .     A
C1265  H843    1.117   .     S
C1266  H844    1.113   .     S
C1267  C1268   1.402   .     A
C1267  C1272   1.393   .     A
C1267  H845    1.115   .     S
C1268  C1269   1.402   .     A
C1268  Si61    1.879   .     S
C1269  C1270   1.393   .     A
C1269  H846    1.116   .     S
C1270  C1271   1.413   .     A
C1270  H847    1.113   .     S
C1271  C1272   1.412   .     A
C1271  C1336   1.454   .     S
C1272  H848    1.113   .     S
Si61   C1273   1.948   .     S
Si61   C1284   1.889   .     S
C1273  C1274   1.396   .     A
C1273  C1278   1.396   .     A
C1274  C1275   1.464   .     A
C1274  H849    1.112   .     S
C1275  C1276   1.390   .     A
C1275  H850    1.118   .     S
C1276  C1277   1.391   .     A
C1277  C1278   1.463   .     A
C1277  H851    1.118   .     S
C1278  H852    1.112   .     S
C1279  C1280   1.415   .     A
C1279  C1284   1.397   .     A
C1279  H853    1.114   .     S
C1280  C1281   1.396   .     A
C1280  H854    1.115   .     S
C1281  C1282   1.396   .     A
C1281  Si62    1.894   .     S
C1282  C1283   1.415   .     A
C1282  H855    1.115   .     S
C1283  C1284   1.397   .     A
C1283  H856    1.115   .     S
Si62   C1288   1.884   .     S
Si62   C1291   1.884   .     S
Si62   C1302   1.892   .     S
C1285  C1286   1.412   .     A
C1285  C1290   1.412   .     A
C1286  C1287   1.394   .     A
C1286  H857    1.113   .     S
C1287  C1288   1.400   .     A
C1287  H858    1.115   .     S
C1288  C1289   1.401   .     A
C1289  C1290   1.394   .     A
C1289  H859    1.116   .     S
C1290  H860    1.113   .     S
C1291  C1292   1.401   .     A
C1291  C1296   1.400   .     A
C1292  C1293   1.393   .     A
C1292  H861    1.116   .     S
C1293  C1294   1.414   .     A
C1293  H862    1.113   .     S
C1294  C1295   1.414   .     A
C1294  C1565   1.456   .     S
C1295  C1296   1.394   .     A
C1295  H863    1.113   .     S
C1296  H864    1.116   .     S
C1297  C1298   1.422   .     A
C1297  C1302   1.400   .     A
C1297  H865    1.115   .     S
C1298  C1299   1.424   .     A
C1298  H866    1.114   .     S
C1299  C1300   1.424   .     A
C1299  H1573   1.115   .     S
C1300  C1301   1.422   .     A
C1300  H867    1.114   .     S
C1301  C1302   1.399   .     A
C1301  H868    1.114   .     S
C1303  C1304   1.412   1_554 A
C1303  C1308   1.412   .     A
C1303  C1621   1.453   1_554 S
C1304  C1303   1.412   1_556 A
C1304  C1305   1.394   1_556 A
C1304  H869    1.114   .     S
C1305  C1304   1.394   1_554 A
C1305  C1306   1.401   .     A
C1305  H870    1.115   1_554 S
C1306  C1307   1.401   .     A
C1306  Si63    1.884   .     S
C1307  C1308   1.394   .     A
C1307  H871    1.116   .     S
C1308  H872    1.113   .     S
H870   C1305   1.115   1_556 S
C1309  C1310   1.400   .     A
C1309  C1314   1.393   1_554 A
C1309  H873    1.116   .     S
C1310  C1311   1.400   .     A
C1310  Si63    1.884   .     S
C1311  C1312   1.393   .     A
C1311  H874    1.116   .     S
C1312  C1313   1.413   .     A
C1312  H875    1.113   .     S
C1313  C1314   1.413   1_554 A
C1313  C1546   1.457   1_554 S
C1314  C1309   1.393   1_556 A
C1314  C1313   1.413   1_556 A
C1314  H876    1.113   .     S
Si63   C1315   1.884   .     S
Si63   C1326   1.895   .     S
C1315  C1316   1.400   .     A
C1315  C1320   1.401   1_554 A
C1316  C1317   1.393   .     A
C1316  H877    1.116   .     S
C1317  C1318   1.414   .     A
C1317  H878    1.113   .     S
C1318  C1319   1.414   1_554 A
C1318  C2139   1.458   1_454 S
C1319  C1318   1.414   1_556 A
C1319  C1320   1.393   .     A
C1319  H879    1.113   .     S
C1320  C1315   1.401   1_556 A
C1320  H880    1.115   .     S
C1321  C1322   1.416   .     A
C1321  C1326   1.395   .     A
C1321  H881    1.115   .     S
C1322  C1323   1.396   .     A
C1322  H882    1.114   .     S
C1323  C1324   1.396   .     A
C1323  Si64    1.895   .     S
C1324  C1325   1.416   .     A
C1324  H883    1.115   .     S
C1325  C1326   1.396   .     A
C1325  H884    1.115   .     S
Si64   C1330   1.885   .     S
Si64   C1333   1.884   .     S
Si64   C1344   1.885   .     S
C1327  C1328   1.412   .     A
C1327  C1332   1.412   .     A
C1327  C1345   1.453   .     S
C1328  C1329   1.394   .     A
C1328  H885    1.113   .     S
C1329  C1330   1.400   .     A
C1329  H886    1.115   .     S
C1330  C1331   1.400   .     A
C1331  C1332   1.394   .     A
C1331  H887    1.116   .     S
C1332  H888    1.113   .     S
C1333  C1334   1.401   .     A
C1333  C1338   1.400   .     A
C1334  C1335   1.394   .     A
C1334  H889    1.116   .     S
C1335  C1336   1.412   .     A
C1335  H890    1.113   .     S
C1336  C1337   1.412   .     A
C1337  C1338   1.394   .     A
C1337  H891    1.113   .     S
C1338  H892    1.116   .     S
C1339  C1340   1.394   .     A
C1339  C1344   1.400   .     A
C1339  H893    1.116   .     S
C1340  C1341   1.413   .     A
C1340  H894    1.113   .     S
C1341  C1342   1.412   .     A
C1341  C1822   1.455   1_455 S
C1342  C1343   1.394   .     A
C1342  H895    1.113   .     S
C1343  C1344   1.400   .     A
C1343  H896    1.115   .     S
C1345  C1346   1.412   .     A
C1345  C1350   1.413   .     A
C1346  C1347   1.394   .     A
C1346  H897    1.113   .     S
C1347  C1348   1.401   .     A
C1347  H898    1.116   .     S
C1348  C1349   1.401   .     A
C1348  Si65    1.883   .     S
C1349  C1350   1.394   .     A
C1349  H899    1.116   .     S
C1350  H900    1.113   .     S
C1351  C1352   1.400   .     A
C1351  C1356   1.394   .     A
C1351  H901    1.115   .     S
C1352  C1353   1.400   .     A
C1352  Si65    1.885   .     S
C1353  C1354   1.393   .     A
C1353  H902    1.116   .     S
C1354  C1355   1.412   .     A
C1354  H903    1.114   .     S
C1355  C1356   1.413   .     A
C1355  C1420   1.454   .     S
C1356  H904    1.113   .     S
Si65   C1357   1.884   .     S
Si65   C1368   1.895   .     S
C1357  C1358   1.401   .     A
C1357  C1362   1.400   .     A
C1358  C1359   1.394   .     A
C1358  H905    1.115   .     S
C1359  C1360   1.413   .     A
C1359  H906    1.113   .     S
C1360  C1361   1.413   .     A
C1360  C1509   1.455   .     S
C1361  C1362   1.394   .     A
C1361  H907    1.113   .     S
C1362  H908    1.116   .     S
C1363  C1364   1.416   .     A
C1363  C1368   1.395   .     A
C1363  H909    1.114   .     S
C1364  C1365   1.396   .     A
C1364  H910    1.115   .     S
C1365  C1366   1.395   .     A
C1365  Si66    1.895   .     S
C1366  C1367   1.416   .     A
C1366  H911    1.115   .     S
C1367  C1368   1.395   .     A
C1367  H912    1.115   .     S
Si66   C1372   1.884   .     S
Si66   C1375   1.884   .     S
Si66   C1386   1.885   .     S
C1369  C1370   1.412   .     A
C1369  C1374   1.412   .     A
C1369  C1555   1.453   .     S
C1370  C1371   1.394   .     A
C1370  H913    1.113   .     S
C1371  C1372   1.400   .     A
C1371  H914    1.116   .     S
C1372  C1373   1.400   .     A
C1373  C1374   1.394   .     A
C1373  H915    1.116   .     S
C1374  H916    1.113   .     S
C1375  C1376   1.401   .     A
C1375  C1380   1.401   .     A
C1376  C1377   1.393   .     A
C1376  H917    1.116   .     S
C1377  C1378   1.413   .     A
C1377  H918    1.113   .     S
C1378  C1379   1.413   .     A
C1378  C1649   1.457   .     S
C1379  C1380   1.393   .     A
C1379  H919    1.113   .     S
C1380  H920    1.116   .     S
C1381  C1382   1.393   .     A
C1381  C1386   1.400   .     A
C1381  H921    1.116   .     S
C1382  C1383   1.413   .     A
C1382  H922    1.113   .     S
C1383  C1384   1.414   .     A
C1383  C1738   1.458   .     S
C1384  C1385   1.393   .     A
C1384  H923    1.113   .     S
C1385  C1386   1.400   .     A
C1385  H924    1.115   .     S
C1387  C319    1.453   1_564 S
C1387  C1388   1.412   1_554 A
C1387  C1392   1.412   .     A
C1388  C1387   1.412   1_556 A
C1388  C1389   1.394   1_556 A
C1388  H925    1.114   .     S
C1389  C1388   1.394   1_554 A
C1389  C1390   1.401   .     A
C1389  H926    1.115   1_554 S
C1390  C1391   1.400   .     A
C1390  Si67    1.884   .     S
C1391  C1392   1.394   .     A
C1391  H927    1.116   .     S
C1392  H928    1.113   .     S
H926   C1389   1.115   1_556 S
C1393  C1394   1.401   .     A
C1393  C1398   1.394   1_554 A
C1393  H929    1.116   .     S
C1394  C1395   1.401   .     A
C1394  Si67    1.883   .     S
C1395  C1396   1.393   .     A
C1395  H930    1.116   .     S
C1396  C1397   1.414   .     A
C1396  H931    1.113   .     S
C1397  C1398   1.413   1_554 A
C1397  C1630   1.456   1_554 S
C1398  C1397   1.413   1_556 A
C1398  C1393   1.394   1_556 A
C1398  H932    1.113   .     S
Si67   C1399   1.884   .     S
Si67   C1410   1.895   .     S
C1399  C1400   1.401   .     A
C1399  C1404   1.400   1_554 A
C1400  C1401   1.393   .     A
C1400  H933    1.115   .     S
C1401  C1402   1.413   .     A
C1401  H934    1.113   .     S
C1402  C1403   1.414   1_554 A
C1402  C2307   1.457   1_454 S
C1403  C1402   1.414   1_556 A
C1403  C1404   1.393   .     A
C1403  H935    1.113   .     S
C1404  C1399   1.400   1_556 A
C1404  H936    1.116   .     S
C1405  C1406   1.415   .     A
C1405  C1410   1.395   .     A
C1405  H937    1.114   .     S
C1406  C1407   1.395   .     A
C1406  H938    1.115   .     S
C1407  C1408   1.396   .     A
C1407  Si68    1.895   .     S
C1408  C1409   1.416   .     A
C1408  H939    1.115   .     S
C1409  C1410   1.397   .     A
C1409  H940    1.115   .     S
Si68   C1414   1.885   .     S
Si68   C1417   1.884   .     S
Si68   C1428   1.885   .     S
C1411  C1      1.454   1_565 S
C1411  C1412   1.412   .     A
C1411  C1416   1.412   .     A
C1412  C1413   1.394   .     A
C1412  H941    1.113   .     S
C1413  C1414   1.400   .     A
C1413  H942    1.115   .     S
C1414  C1415   1.401   .     A
C1415  C1416   1.394   .     A
C1415  H943    1.116   .     S
C1416  H944    1.113   .     S
C1417  C1418   1.401   .     A
C1417  C1422   1.401   .     A
C1418  C1419   1.394   .     A
C1418  H945    1.115   .     S
C1419  C1420   1.413   .     A
C1419  H946    1.113   .     S
C1420  C1421   1.412   .     A
C1421  C1422   1.393   .     A
C1421  H947    1.114   .     S
C1422  H948    1.116   .     S
C1423  C1424   1.393   .     A
C1423  C1428   1.400   .     A
C1423  H949    1.116   .     S
C1424  C1425   1.413   .     A
C1424  H950    1.113   .     S
C1425  C1426   1.412   .     A
C1425  C1990   1.455   1_455 S
C1426  C1427   1.394   .     A
C1426  H951    1.113   .     S
C1427  C1428   1.399   .     A
C1427  H952    1.115   .     S
C1429  C1430   1.391   .     A
C1429  C1434   1.390   .     A
C1430  C1431   1.463   .     A
C1430  H953    1.118   .     S
C1431  C1432   1.396   .     A
C1431  H954    1.113   .     S
C1432  C1433   1.397   .     A
C1432  Si69    1.947   .     S
C1433  C1434   1.463   .     A
C1433  H955    1.112   .     S
C1434  H956    1.118   .     S
C1435  C1436   1.402   .     A
C1435  C1440   1.393   .     A
C1435  H957    1.115   .     S
C1436  C1437   1.402   .     A
C1436  Si69    1.878   .     S
C1437  C1438   1.393   .     A
C1437  H958    1.116   .     S
C1438  C1439   1.413   .     A
C1438  H959    1.113   .     S
C1439  C1440   1.413   .     A
C1439  C1504   1.454   .     S
C1440  H960    1.113   .     S
Si69   C1441   1.878   .     S
Si69   C1452   1.890   .     S
C1441  C1442   1.402   .     A
C1441  C1446   1.403   .     A
C1442  C1443   1.393   .     A
C1442  H961    1.115   .     S
C1443  C1444   1.413   .     A
C1443  H962    1.113   .     S
C1444  C1445   1.414   .     A
C1444  C1971   1.455   .     S
C1445  C1446   1.393   .     A
C1445  H963    1.113   .     S
C1446  H964    1.115   .     S
C1447  C1448   1.415   .     A
C1447  C1452   1.397   .     A
C1447  H965    1.114   .     S
C1448  C1449   1.396   .     A
C1448  H966    1.115   .     S
C1449  C1450   1.395   .     A
C1449  Si70    1.894   .     S
C1450  C1451   1.415   .     A
C1450  H967    1.115   .     S
C1451  C1452   1.399   .     A
C1451  H968    1.114   .     S
Si70   C1456   1.891   .     S
Si70   C1459   1.884   .     S
Si70   C1470   1.884   .     S
C1453  C1454   1.424   .     A
C1453  C1458   1.424   .     A
C1453  H1574   1.115   .     S
C1454  C1455   1.422   .     A
C1454  H969    1.115   .     S
C1455  C1456   1.400   .     A
C1455  H970    1.114   .     S
C1456  C1457   1.399   .     A
C1457  C1458   1.422   .     A
C1457  H971    1.115   .     S
C1458  H972    1.114   .     S
C1459  C1460   1.401   .     A
C1459  C1464   1.400   .     A
C1460  C1461   1.394   .     A
C1460  H973    1.116   .     S
C1461  C1462   1.413   .     A
C1461  H974    1.113   .     S
C1462  C1463   1.413   .     A
C1462  C1733   1.457   .     S
C1463  C1464   1.394   .     A
C1463  H975    1.113   .     S
C1464  H976    1.116   .     S
C1465  C1466   1.393   .     A
C1465  C1470   1.401   .     A
C1465  H977    1.116   .     S
C1466  C1467   1.414   .     A
C1466  H978    1.113   .     S
C1467  C1468   1.413   .     A
C1467  C2242   1.457   .     S
C1468  C1469   1.393   .     A
C1468  H979    1.113   .     S
C1469  C1470   1.400   .     A
C1469  H980    1.115   .     S
C1471  C403    1.453   1_564 S
C1471  C1472   1.412   1_554 A
C1471  C1476   1.413   .     A
C1472  C1471   1.412   1_556 A
C1472  C1473   1.394   1_556 A
C1472  H981    1.114   .     S
C1473  C1472   1.394   1_554 A
C1473  C1474   1.401   .     A
C1473  H982    1.116   1_554 S
C1474  C1475   1.400   .     A
C1474  Si71    1.885   .     S
C1475  C1476   1.394   .     A
C1475  H983    1.116   .     S
C1476  H984    1.113   .     S
H982   C1473   1.116   1_556 S
C1477  C1478   1.401   .     A
C1477  C1482   1.393   1_554 A
C1477  H985    1.115   .     S
C1478  C1479   1.400   .     A
C1478  Si71    1.884   .     S
C1479  C1480   1.393   .     A
C1479  H986    1.116   .     S
C1480  C1481   1.413   .     A
C1480  H987    1.113   .     S
C1481  C1482   1.413   1_554 A
C1481  C1714   1.457   1_554 S
C1482  C1481   1.413   1_556 A
C1482  C1477   1.393   1_556 A
C1482  H988    1.113   .     S
Si71   C1483   1.884   .     S
Si71   C1494   1.895   .     S
C1483  C1484   1.401   .     A
C1483  C1488   1.400   1_554 A
C1484  C1485   1.393   .     A
C1484  H989    1.115   .     S
C1485  C1486   1.413   .     A
C1485  H990    1.113   .     S
C1486  C1487   1.414   1_554 A
C1486  C1635   1.458   1_554 S
C1487  C1486   1.414   1_556 A
C1487  C1488   1.393   .     A
C1487  H991    1.113   .     S
C1488  C1483   1.400   1_556 A
C1488  H992    1.116   .     S
C1489  C1490   1.415   .     A
C1489  C1494   1.395   .     A
C1489  H993    1.114   .     S
C1490  C1491   1.395   .     A
C1490  H994    1.115   .     S
C1491  C1492   1.396   .     A
C1491  Si72    1.895   .     S
C1492  C1493   1.416   .     A
C1492  H995    1.115   .     S
C1493  C1494   1.396   .     A
C1493  H996    1.115   .     S
Si72   C1498   1.885   .     S
Si72   C1501   1.883   .     S
Si72   C1512   1.885   .     S
C1495  C85     1.453   1_565 S
C1495  C1496   1.412   .     A
C1495  C1500   1.412   .     A
C1496  C1497   1.394   .     A
C1496  H997    1.113   .     S
C1497  C1498   1.400   .     A
C1497  H998    1.115   .     S
C1498  C1499   1.400   .     A
C1499  C1500   1.394   .     A
C1499  H999    1.116   .     S
C1500  H1000   1.113   .     S
C1501  C1502   1.401   .     A
C1501  C1506   1.401   .     A
C1502  C1503   1.394   .     A
C1502  H1001   1.115   .     S
C1503  C1504   1.412   .     A
C1503  H1002   1.113   .     S
C1504  C1505   1.412   .     A
C1505  C1506   1.394   .     A
C1505  H1003   1.114   .     S
C1506  H1004   1.116   .     S
C1507  C1508   1.394   .     A
C1507  C1512   1.401   .     A
C1507  H1005   1.115   .     S
C1508  C1509   1.413   .     A
C1508  H1006   1.113   .     S
C1509  C1510   1.412   .     A
C1510  C1511   1.394   .     A
C1510  H1007   1.113   .     S
C1511  C1512   1.400   .     A
C1511  H1008   1.115   .     S
C1513  C1514   1.412   .     A
C1513  C1518   1.413   .     A
C1514  C1515   1.394   .     A
C1514  H1009   1.114   .     S
C1515  C1516   1.401   .     A
C1515  H1010   1.116   .     S
C1516  C1517   1.401   .     A
C1516  Si73    1.883   .     S
C1517  C1518   1.393   .     A
C1517  H1011   1.116   .     S
C1518  H1012   1.114   .     S
C1519  C1520   1.400   .     A
C1519  C1524   1.394   .     A
C1519  H1013   1.116   .     S
C1520  C1521   1.400   .     A
C1520  Si73    1.885   .     S
C1521  C1522   1.394   .     A
C1521  H1014   1.116   .     S
C1522  C1523   1.412   .     A
C1522  H1015   1.113   .     S
C1523  C1524   1.412   .     A
C1523  C1588   1.454   .     S
C1524  H1016   1.113   .     S
Si73   C1525   1.891   .     S
Si73   C1536   1.894   .     S
C1525  C1526   1.400   .     A
C1525  C1530   1.400   .     A
C1526  C1527   1.421   .     A
C1526  H1017   1.114   .     S
C1527  C1528   1.423   .     A
C1527  H1018   1.115   .     S
C1528  C1529   1.424   .     A
C1528  H1575   1.115   .     S
C1529  C1530   1.422   .     A
C1529  H1019   1.114   .     S
C1530  H1020   1.115   .     S
C1531  C1532   1.415   .     A
C1531  C1536   1.395   .     A
C1531  H1021   1.114   .     S
C1532  C1533   1.397   .     A
C1532  H1022   1.115   .     S
C1533  C1534   1.397   .     A
C1533  Si74    1.889   .     S
C1534  C1535   1.415   .     A
C1534  H1023   1.115   .     S
C1535  C1536   1.396   .     A
C1535  H1024   1.114   .     S
Si74   C1540   1.877   .     S
Si74   C1543   1.877   .     S
Si74   C1554   1.949   .     S
C1537  C211    1.453   1_556 S
C1537  C1538   1.413   1_556 A
C1537  C1542   1.413   .     A
C1538  C1537   1.413   1_554 A
C1538  C1539   1.393   .     A
C1538  H1025   1.113   .     S
C1539  C1540   1.403   1_554 A
C1539  H1026   1.116   .     S
C1540  C1539   1.403   1_556 A
C1540  C1541   1.403   .     A
C1541  C1542   1.393   .     A
C1541  H1027   1.115   .     S
C1542  H1028   1.114   .     S
C1543  C1544   1.403   .     A
C1543  C1548   1.403   .     A
C1544  C1545   1.393   .     A
C1544  H1029   1.116   .     S
C1545  C1546   1.414   .     A
C1545  H1030   1.113   .     S
C1546  C1313   1.457   1_556 S
C1546  C1547   1.414   .     A
C1547  C1548   1.393   .     A
C1547  H1031   1.113   .     S
C1548  H1032   1.115   .     S
C1549  C1550   1.463   .     A
C1549  C1554   1.397   1_554 A
C1549  H1033   1.112   .     S
C1550  C1551   1.391   1_554 A
C1550  H1034   1.118   .     S
C1551  C1550   1.391   1_556 A
C1551  C1552   1.390   .     A
C1552  C1553   1.463   .     A
C1552  H1035   1.118   .     S
C1553  C1554   1.397   .     A
C1553  H1036   1.111   .     S
C1554  C1549   1.397   1_556 A
C1555  C1556   1.412   .     A
C1555  C1560   1.412   .     A
C1556  C1557   1.394   .     A
C1556  H1037   1.114   .     S
C1557  C1558   1.400   .     A
C1557  H1038   1.115   .     S
C1558  C1559   1.401   .     A
C1558  Si75    1.884   .     S
C1559  C1560   1.394   .     A
C1559  H1039   1.116   .     S
C1560  H1040   1.113   .     S
C1561  C1562   1.401   .     A
C1561  C1566   1.393   .     A
C1561  H1041   1.115   .     S
C1562  C1563   1.401   .     A
C1562  Si75    1.884   .     S
C1563  C1564   1.393   .     A
C1563  H1042   1.116   .     S
C1564  C1565   1.414   .     A
C1564  H1043   1.113   .     S
C1565  C1566   1.413   .     A
C1566  H1044   1.113   .     S
Si75   C1567   1.883   .     S
Si75   C1578   1.895   .     S
C1567  C1568   1.401   .     A
C1567  C1572   1.401   .     A
C1568  C1569   1.393   .     A
C1568  H1045   1.116   .     S
C1569  C1570   1.414   .     A
C1569  H1046   1.113   .     S
C1570  C1571   1.414   .     A
C1570  C1845   1.458   1_455 S
C1571  C1572   1.393   .     A
C1571  H1047   1.113   .     S
C1572  H1048   1.115   .     S
C1573  C1574   1.416   .     A
C1573  C1578   1.395   .     A
C1573  H1049   1.114   .     S
C1574  C1575   1.396   .     A
C1574  H1050   1.115   .     S
C1575  C1576   1.396   .     A
C1575  Si76    1.895   .     S
C1576  C1577   1.416   .     A
C1576  H1051   1.115   .     S
C1577  C1578   1.396   .     A
C1577  H1052   1.115   .     S
Si76   C1582   1.885   .     S
Si76   C1585   1.884   .     S
Si76   C1596   1.885   .     S
C1579  C1580   1.412   .     A
C1579  C1584   1.412   .     A
C1579  C1597   1.453   .     S
C1580  C1581   1.394   .     A
C1580  H1053   1.113   .     S
C1581  C1582   1.400   .     A
C1581  H1054   1.115   .     S
C1582  C1583   1.400   .     A
C1583  C1584   1.394   .     A
C1583  H1055   1.116   .     S
C1584  H1056   1.113   .     S
C1585  C1586   1.401   .     A
C1585  C1590   1.400   .     A
C1586  C1587   1.393   .     A
C1586  H1057   1.116   .     S
C1587  C1588   1.413   .     A
C1587  H1058   1.113   .     S
C1588  C1589   1.412   .     A
C1589  C1590   1.393   .     A
C1589  H1059   1.114   .     S
C1590  H1060   1.116   .     S
C1591  C1592   1.393   .     A
C1591  C1596   1.400   .     A
C1591  H1061   1.116   .     S
C1592  C1593   1.413   .     A
C1592  H1062   1.113   .     S
C1593  C1594   1.413   .     A
C1593  C2116   1.455   1_455 S
C1594  C1595   1.394   .     A
C1594  H1063   1.113   .     S
C1595  C1596   1.400   .     A
C1595  H1064   1.115   .     S
C1597  C1598   1.412   .     A
C1597  C1602   1.413   .     A
C1598  C1599   1.394   .     A
C1598  H1065   1.113   .     S
C1599  C1600   1.401   .     A
C1599  H1066   1.116   .     S
C1600  C1601   1.401   .     A
C1600  Si77    1.883   .     S
C1601  C1602   1.394   .     A
C1601  H1067   1.116   .     S
C1602  H1068   1.113   .     S
C1603  C1604   1.400   .     A
C1603  C1608   1.394   .     A
C1603  H1069   1.116   .     S
C1604  C1605   1.400   .     A
C1604  Si77    1.885   .     S
C1605  C1606   1.394   .     A
C1605  H1070   1.116   .     S
C1606  C1607   1.412   .     A
C1606  H1071   1.114   .     S
C1607  C1608   1.413   .     A
C1607  C1672   1.454   .     S
C1608  H1072   1.113   .     S
Si77   C1609   1.884   .     S
Si77   C1620   1.895   .     S
C1609  C1610   1.400   .     A
C1609  C1614   1.400   .     A
C1610  C1611   1.394   .     A
C1610  H1073   1.115   .     S
C1611  C1612   1.413   .     A
C1611  H1074   1.113   .     S
C1612  C1613   1.413   .     A
C1612  C1761   1.455   .     S
C1613  C1614   1.393   .     A
C1613  H1075   1.113   .     S
C1614  H1076   1.116   .     S
C1615  C1616   1.416   .     A
C1615  C1620   1.395   .     A
C1615  H1077   1.114   .     S
C1616  C1617   1.396   .     A
C1616  H1078   1.116   .     S
C1617  C1618   1.395   .     A
C1617  Si78    1.895   .     S
C1618  C1619   1.416   .     A
C1618  H1079   1.115   .     S
C1619  C1620   1.396   .     A
C1619  H1080   1.116   .     S
Si78   C1624   1.884   .     S
Si78   C1627   1.884   .     S
Si78   C1638   1.884   .     S
C1621  C1303   1.453   1_556 S
C1621  C1622   1.412   1_556 A
C1621  C1626   1.412   .     A
C1622  C1621   1.412   1_554 A
C1622  C1623   1.394   .     A
C1622  H1081   1.113   .     S
C1623  C1624   1.400   1_554 A
C1623  H1082   1.116   .     S
C1624  C1623   1.400   1_556 A
C1624  C1625   1.401   .     A
C1625  C1626   1.394   .     A
C1625  H1083   1.116   .     S
C1626  H1084   1.113   .     S
C1627  C1628   1.401   .     A
C1627  C1632   1.400   .     A
C1628  C1629   1.393   .     A
C1628  H1085   1.116   .     S
C1629  C1630   1.413   .     A
C1629  H1086   1.113   .     S
C1630  C1397   1.456   1_556 S
C1630  C1631   1.414   .     A
C1631  C1632   1.393   .     A
C1631  H1087   1.113   .     S
C1632  H1088   1.116   .     S
C1633  C1634   1.393   .     A
C1633  C1638   1.401   1_554 A
C1633  H1089   1.116   .     S
C1634  C1635   1.413   1_554 A
C1634  H1090   1.113   .     S
C1635  C1634   1.413   1_556 A
C1635  C1486   1.458   1_556 S
C1635  C1636   1.413   .     A
C1636  C1637   1.393   .     A
C1636  H1091   1.113   .     S
C1637  C1638   1.400   .     A
C1637  H1092   1.115   .     S
C1638  C1633   1.401   1_556 A
C1639  C25     1.453   1_565 S
C1639  C1640   1.412   .     A
C1639  C1644   1.412   .     A
C1640  C1641   1.394   .     A
C1640  H1093   1.113   .     S
C1641  C1642   1.401   .     A
C1641  H1094   1.115   .     S
C1642  C1643   1.400   .     A
C1642  Si79    1.885   .     S
C1643  C1644   1.394   .     A
C1643  H1095   1.116   .     S
C1644  H1096   1.113   .     S
C1645  C1646   1.401   .     A
C1645  C1650   1.394   .     A
C1645  H1097   1.116   .     S
C1646  C1647   1.400   .     A
C1646  Si79    1.884   .     S
C1647  C1648   1.393   .     A
C1647  H1098   1.116   .     S
C1648  C1649   1.413   .     A
C1648  H1099   1.113   .     S
C1649  C1650   1.413   .     A
C1650  H1100   1.113   .     S
Si79   C1651   1.884   .     S
Si79   C1662   1.895   .     S
C1651  C1652   1.401   .     A
C1651  C1656   1.401   .     A
C1652  C1653   1.393   .     A
C1652  H1101   1.115   .     S
C1653  C1654   1.413   .     A
C1653  H1102   1.113   .     S
C1654  C1655   1.414   .     A
C1654  C2013   1.457   1_455 S
C1655  C1656   1.393   .     A
C1655  H1103   1.113   .     S
C1656  H1104   1.116   .     S
C1657  C1658   1.415   .     A
C1657  C1662   1.395   .     A
C1657  H1105   1.114   .     S
C1658  C1659   1.395   .     A
C1658  H1106   1.115   .     S
C1659  C1660   1.396   .     A
C1659  Si80    1.895   .     S
C1660  C1661   1.416   .     A
C1660  H1107   1.115   .     S
C1661  C1662   1.396   .     A
C1661  H1108   1.116   .     S
Si80   C1666   1.885   .     S
Si80   C1669   1.884   .     S
Si80   C1680   1.885   .     S
C1663  C295    1.454   1_565 S
C1663  C1664   1.413   .     A
C1663  C1668   1.412   .     A
C1664  C1665   1.394   .     A
C1664  H1109   1.113   .     S
C1665  C1666   1.400   .     A
C1665  H1110   1.115   .     S
C1666  C1667   1.401   .     A
C1667  C1668   1.394   .     A
C1667  H1111   1.116   .     S
C1668  H1112   1.113   .     S
C1669  C1670   1.401   .     A
C1669  C1674   1.401   .     A
C1670  C1671   1.394   .     A
C1670  H1113   1.115   .     S
C1671  C1672   1.413   .     A
C1671  H1114   1.113   .     S
C1672  C1673   1.412   .     A
C1673  C1674   1.393   .     A
C1673  H1115   1.114   .     S
C1674  H1116   1.116   .     S
C1675  C1676   1.393   .     A
C1675  C1680   1.400   .     A
C1675  H1117   1.116   .     S
C1676  C1677   1.413   .     A
C1676  H1118   1.113   .     S
C1677  C1678   1.412   .     A
C1677  C2284   1.455   1_455 S
C1678  C1679   1.394   .     A
C1678  H1119   1.113   .     S
C1679  C1680   1.399   .     A
C1679  H1120   1.115   .     S
C1681  C1682   1.423   .     A
C1681  C1686   1.424   .     A
C1681  H1576   1.115   .     S
C1682  C1683   1.421   .     A
C1682  H1121   1.115   .     S
C1683  C1684   1.400   .     A
C1683  H1122   1.115   .     S
C1684  C1685   1.400   .     A
C1684  Si81    1.890   .     S
C1685  C1686   1.422   .     A
C1685  H1123   1.115   .     S
C1686  H1124   1.114   .     S
C1687  C1688   1.400   .     A
C1687  C1692   1.394   .     A
C1687  H1125   1.115   .     S
C1688  C1689   1.400   .     A
C1688  Si81    1.885   .     S
C1689  C1690   1.394   .     A
C1689  H1126   1.116   .     S
C1690  C1691   1.412   .     A
C1690  H1127   1.113   .     S
C1691  C1692   1.412   .     A
C1691  C1756   1.454   .     S
C1692  H1128   1.113   .     S
Si81   C1693   1.883   .     S
Si81   C1704   1.894   .     S
C1693  C1694   1.401   .     A
C1693  C1698   1.401   .     A
C1694  C1695   1.394   .     A
C1694  H1129   1.115   .     S
C1695  C1696   1.413   .     A
C1695  H1130   1.113   .     S
C1696  C1697   1.413   .     A
C1696  C2265   1.455   .     S
C1697  C1698   1.394   .     A
C1697  H1131   1.113   .     S
C1698  H1132   1.115   .     S
C1699  C1700   1.415   .     A
C1699  C1704   1.396   .     A
C1699  H1133   1.114   .     S
C1700  C1701   1.397   .     A
C1700  H1134   1.115   .     S
C1701  C1702   1.397   .     A
C1701  Si82    1.890   .     S
C1702  C1703   1.415   .     A
C1702  H1135   1.115   .     S
C1703  C1704   1.396   .     A
C1703  H1136   1.115   .     S
Si82   C1708   1.947   .     S
Si82   C1711   1.877   .     S
Si82   C1722   1.878   .     S
C1705  C1706   1.390   1_556 A
C1705  C1710   1.391   .     A
C1706  C1705   1.390   1_554 A
C1706  C1707   1.463   .     A
C1706  H1137   1.118   .     S
C1707  C1708   1.396   1_554 A
C1707  H1138   1.112   .     S
C1708  C1707   1.396   1_556 A
C1708  C1709   1.396   .     A
C1709  C1710   1.464   .     A
C1709  H1139   1.112   .     S
C1710  H1140   1.118   .     S
C1711  C1712   1.403   .     A
C1711  C1716   1.402   .     A
C1712  C1713   1.393   .     A
C1712  H1141   1.116   .     S
C1713  C1714   1.414   .     A
C1713  H1142   1.113   .     S
C1714  C1481   1.457   1_556 S
C1714  C1715   1.414   .     A
C1715  C1716   1.392   .     A
C1715  H1143   1.113   .     S
C1716  H1144   1.116   .     S
C1717  C1718   1.393   .     A
C1717  C1722   1.403   1_554 A
C1717  H1145   1.116   .     S
C1718  C1719   1.414   1_554 A
C1718  H1146   1.113   .     S
C1719  C1718   1.414   1_556 A
C1719  C1720   1.414   .     A
C1719  C1948   1.458   1_556 S
C1720  C1721   1.393   .     A
C1720  H1147   1.113   .     S
C1721  C1722   1.403   .     A
C1721  H1148   1.115   .     S
C1722  C1717   1.403   1_556 A
C1723  C109    1.453   1_565 S
C1723  C1724   1.412   .     A
C1723  C1728   1.412   .     A
C1724  C1725   1.394   .     A
C1724  H1149   1.113   .     S
C1725  C1726   1.400   .     A
C1725  H1150   1.115   .     S
C1726  C1727   1.400   .     A
C1726  Si83    1.884   .     S
C1727  C1728   1.394   .     A
C1727  H1151   1.116   .     S
C1728  H1152   1.113   .     S
C1729  C1730   1.401   .     A
C1729  C1734   1.393   .     A
C1729  H1153   1.115   .     S
C1730  C1731   1.400   .     A
C1730  Si83    1.885   .     S
C1731  C1732   1.393   .     A
C1731  H1154   1.116   .     S
C1732  C1733   1.413   .     A
C1732  H1155   1.113   .     S
C1733  C1734   1.413   .     A
C1734  H1156   1.113   .     S
Si83   C1735   1.884   .     S
Si83   C1746   1.895   .     S
C1735  C1736   1.401   .     A
C1735  C1740   1.401   .     A
C1736  C1737   1.393   .     A
C1736  H1157   1.116   .     S
C1737  C1738   1.413   .     A
C1737  H1158   1.113   .     S
C1738  C1739   1.414   .     A
C1739  C1740   1.393   .     A
C1739  H1159   1.113   .     S
C1740  H1160   1.116   .     S
C1741  C1742   1.415   .     A
C1741  C1746   1.395   .     A
C1741  H1161   1.114   .     S
C1742  C1743   1.396   .     A
C1742  H1162   1.115   .     S
C1743  C1744   1.396   .     A
C1743  Si84    1.895   .     S
C1744  C1745   1.416   .     A
C1744  H1163   1.115   .     S
C1745  C1746   1.396   .     A
C1745  H1164   1.115   .     S
Si84   C1750   1.885   .     S
Si84   C1753   1.884   .     S
Si84   C1764   1.885   .     S
C1747  C379    1.454   1_565 S
C1747  C1748   1.412   .     A
C1747  C1752   1.412   .     A
C1748  C1749   1.393   .     A
C1748  H1165   1.113   .     S
C1749  C1750   1.400   .     A
C1749  H1166   1.115   .     S
C1750  C1751   1.400   .     A
C1751  C1752   1.394   .     A
C1751  H1167   1.116   .     S
C1752  H1168   1.113   .     S
C1753  C1754   1.400   .     A
C1753  C1758   1.401   .     A
C1754  C1755   1.394   .     A
C1754  H1169   1.115   .     S
C1755  C1756   1.412   .     A
C1755  H1170   1.113   .     S
C1756  C1757   1.413   .     A
C1757  C1758   1.394   .     A
C1757  H1171   1.113   .     S
C1758  H1172   1.116   .     S
C1759  C1760   1.394   .     A
C1759  C1764   1.400   .     A
C1759  H1173   1.116   .     S
C1760  C1761   1.412   .     A
C1760  H1174   1.113   .     S
C1761  C1762   1.413   .     A
C1762  C1763   1.394   .     A
C1762  H1175   1.113   .     S
C1763  C1764   1.400   .     A
C1763  H1176   1.115   .     S
C1765  C1766   1.413   .     A
C1765  C1770   1.414   .     A
C1766  C1767   1.393   .     A
C1766  H1177   1.113   .     S
C1767  C1768   1.403   .     A
C1767  H1178   1.116   .     S
C1768  C1769   1.403   .     A
C1768  Si85    1.877   .     S
C1769  C1770   1.393   .     A
C1769  H1179   1.116   .     S
C1770  H1180   1.113   .     S
C1771  C1772   1.397   .     A
C1771  C1776   1.463   .     A
C1771  H1181   1.112   .     S
C1772  C1773   1.396   .     A
C1772  Si85    1.949   .     S
C1773  C1774   1.463   .     A
C1773  H1182   1.112   .     S
C1774  C1775   1.391   .     A
C1774  H1183   1.118   .     S
C1775  C1776   1.390   .     A
C1776  H1184   1.118   .     S
Si85   C1777   1.877   .     S
Si85   C1788   1.890   .     S
C1777  C1778   1.403   .     A
C1777  C1782   1.403   .     A
C1778  C1779   1.393   .     A
C1778  H1185   1.115   .     S
C1779  C1780   1.413   .     A
C1779  H1186   1.113   .     S
C1780  C1781   1.413   .     A
C1780  C1887   1.455   .     S
C1781  C1782   1.393   .     A
C1781  H1187   1.114   .     S
C1782  H1188   1.116   .     S
C1783  C1784   1.415   .     A
C1783  C1788   1.396   .     A
C1783  H1189   1.114   .     S
C1784  C1785   1.397   .     A
C1784  H1190   1.115   .     S
C1785  C1786   1.395   .     A
C1785  Si86    1.894   .     S
C1786  C1787   1.415   .     A
C1786  H1191   1.115   .     S
C1787  C1788   1.398   .     A
C1787  H1192   1.115   .     S
Si86   C1792   1.884   .     S
Si86   C1795   1.891   .     S
Si86   C1806   1.885   .     S
C1789  C1790   1.412   .     A
C1789  C1794   1.412   .     A
C1790  C1791   1.394   .     A
C1790  H1193   1.114   .     S
C1791  C1792   1.400   .     A
C1791  H1194   1.116   .     S
C1792  C1793   1.401   .     A
C1793  C1794   1.394   .     A
C1793  H1195   1.116   .     S
C1794  H1196   1.113   .     S
C1795  C1796   1.399   .     A
C1795  C1800   1.400   .     A
C1796  C1797   1.422   .     A
C1796  H1197   1.115   .     S
C1797  C1798   1.423   .     A
C1797  H1198   1.114   .     S
C1798  C1799   1.424   .     A
C1798  H1577   1.115   .     S
C1799  C1800   1.422   .     A
C1799  H1199   1.115   .     S
C1800  H1200   1.115   .     S
C1801  C1802   1.394   .     A
C1801  C1806   1.400   .     A
C1801  H1201   1.116   .     S
C1802  C1803   1.413   .     A
C1802  H1202   1.113   .     S
C1803  C1804   1.413   .     A
C1803  C2158   1.458   .     S
C1804  C1805   1.394   .     A
C1804  H1203   1.113   .     S
C1805  C1806   1.400   .     A
C1805  H1204   1.115   .     S
C1807  C1808   1.412   .     A
C1807  C1812   1.413   .     A
C1808  C1809   1.394   .     A
C1808  H1205   1.114   .     S
C1809  C1810   1.401   .     A
C1809  H1206   1.116   .     S
C1810  C1811   1.401   .     A
C1810  Si87    1.883   .     S
C1811  C1812   1.393   .     A
C1811  H1207   1.115   .     S
C1812  H1208   1.113   .     S
C1813  C1814   1.400   .     A
C1813  C1818   1.394   .     A
C1813  H1209   1.115   .     S
C1814  C1815   1.400   .     A
C1814  Si87    1.885   .     S
C1815  C1816   1.394   .     A
C1815  H1210   1.116   .     S
C1816  C1817   1.412   .     A
C1816  H1211   1.113   .     S
C1817  C1818   1.412   .     A
C1817  C1882   1.454   .     S
C1818  H1212   1.113   .     S
Si87   C1819   1.884   .     S
Si87   C1830   1.895   .     S
C1819  C1820   1.400   .     A
C1819  C1824   1.400   .     A
C1820  C1821   1.394   .     A
C1820  H1213   1.115   .     S
C1821  C1822   1.413   .     A
C1821  H1214   1.113   .     S
C1822  C1341   1.455   1_655 S
C1822  C1823   1.413   .     A
C1823  C1824   1.393   .     A
C1823  H1215   1.113   .     S
C1824  H1216   1.116   .     S
C1825  C1826   1.416   .     A
C1825  C1830   1.394   .     A
C1825  H1217   1.115   .     S
C1826  C1827   1.395   .     A
C1826  H1218   1.115   .     S
C1827  C1828   1.396   .     A
C1827  Si88    1.895   .     S
C1828  C1829   1.416   .     A
C1828  H1219   1.115   .     S
C1829  C1830   1.396   .     A
C1829  H1220   1.115   .     S
Si88   C1834   1.884   .     S
Si88   C1837   1.884   .     S
Si88   C1848   1.885   .     S
C1831  C1832   1.412   .     A
C1831  C1836   1.412   .     A
C1832  C1833   1.394   .     A
C1832  H1221   1.113   .     S
C1833  C1834   1.400   .     A
C1833  H1222   1.116   .     S
C1834  C1835   1.401   .     A
C1835  C1836   1.394   .     A
C1835  H1223   1.116   .     S
C1836  H1224   1.113   .     S
C1837  C1838   1.401   .     A
C1837  C1842   1.400   .     A
C1838  C1839   1.393   .     A
C1838  H1225   1.116   .     S
C1839  C1840   1.413   .     A
C1839  H1226   1.113   .     S
C1840  C1841   1.414   .     A
C1840  C2153   1.456   .     S
C1841  C1842   1.393   .     A
C1841  H1227   1.113   .     S
C1842  H1228   1.116   .     S
C1843  C1844   1.393   .     A
C1843  C1848   1.401   .     A
C1843  H1229   1.116   .     S
C1844  C1845   1.414   .     A
C1844  H1230   1.113   .     S
C1845  C1570   1.458   1_655 S
C1845  C1846   1.413   .     A
C1846  C1847   1.393   .     A
C1846  H1231   1.113   .     S
C1847  C1848   1.400   .     A
C1847  H1232   1.115   .     S
C1849  C1850   1.412   1_554 A
C1849  C1854   1.412   .     A
C1849  C2293   1.453   1_554 S
C1850  C1849   1.412   1_556 A
C1850  C1851   1.394   1_556 A
C1850  H1233   1.113   .     S
C1851  C1850   1.394   1_554 A
C1851  C1852   1.401   .     A
C1851  H1234   1.115   1_554 S
C1852  C1853   1.400   .     A
C1852  Si89    1.884   .     S
C1853  C1854   1.394   .     A
C1853  H1235   1.116   .     S
C1854  H1236   1.113   .     S
H1234  C1851   1.115   1_556 S
C1855  C1856   1.401   .     A
C1855  C1860   1.394   1_554 A
C1855  H1237   1.115   .     S
C1856  C1857   1.400   .     A
C1856  Si89    1.884   .     S
C1857  C1858   1.393   .     A
C1857  H1238   1.116   .     S
C1858  C1859   1.413   .     A
C1858  H1239   1.113   .     S
C1859  C1860   1.413   1_554 A
C1859  C2134   1.456   1_554 S
C1860  C1855   1.394   1_556 A
C1860  C1859   1.413   1_556 A
C1860  H1240   1.113   .     S
Si89   C1861   1.884   .     S
Si89   C1872   1.895   .     S
C1861  C1862   1.401   .     A
C1861  C1866   1.400   1_554 A
C1862  C1863   1.393   .     A
C1862  H1241   1.116   .     S
C1863  C1864   1.413   .     A
C1863  H1242   1.113   .     S
C1864  C1865   1.414   1_554 A
C1864  C2097   1.458   1_554 S
C1865  C1864   1.414   1_556 A
C1865  C1866   1.393   .     A
C1865  H1243   1.113   .     S
C1866  C1861   1.400   1_556 A
C1866  H1244   1.116   .     S
C1867  C1868   1.416   .     A
C1867  C1872   1.394   .     A
C1867  H1245   1.115   .     S
C1868  C1869   1.396   .     A
C1868  H1246   1.114   .     S
C1869  C1870   1.396   .     A
C1869  Si90    1.895   .     S
C1870  C1871   1.416   .     A
C1870  H1247   1.115   .     S
C1871  C1872   1.397   .     A
C1871  H1248   1.115   .     S
Si90   C1876   1.885   .     S
Si90   C1879   1.884   .     S
Si90   C1890   1.885   .     S
C1873  C1874   1.412   .     A
C1873  C1878   1.412   .     A
C1873  C1975   1.454   .     S
C1874  C1875   1.394   .     A
C1874  H1249   1.113   .     S
C1875  C1876   1.400   .     A
C1875  H1250   1.115   .     S
C1876  C1877   1.400   .     A
C1877  C1878   1.394   .     A
C1877  H1251   1.116   .     S
C1878  H1252   1.113   .     S
C1879  C1880   1.401   .     A
C1879  C1884   1.401   .     A
C1880  C1881   1.394   .     A
C1880  H1253   1.116   .     S
C1881  C1882   1.412   .     A
C1881  H1254   1.113   .     S
C1882  C1883   1.412   .     A
C1883  C1884   1.394   .     A
C1883  H1255   1.113   .     S
C1884  H1256   1.116   .     S
C1885  C1886   1.394   .     A
C1885  C1890   1.400   .     A
C1885  H1257   1.115   .     S
C1886  C1887   1.412   .     A
C1886  H1258   1.113   .     S
C1887  C1888   1.412   .     A
C1888  C1889   1.394   .     A
C1888  H1259   1.113   .     S
C1889  C1890   1.400   .     A
C1889  H1260   1.115   .     S
C1891  C1892   1.391   .     A
C1891  C1896   1.390   .     A
C1892  C1893   1.463   .     A
C1892  H1261   1.119   .     S
C1893  C1894   1.396   .     A
C1893  H1262   1.112   .     S
C1894  C1895   1.397   .     A
C1894  Si91    1.946   .     S
C1895  C1896   1.463   .     A
C1895  H1263   1.112   .     S
C1896  H1264   1.119   .     S
C1897  C1898   1.402   .     A
C1897  C1902   1.394   .     A
C1897  H1265   1.115   .     S
C1898  C1899   1.402   .     A
C1898  Si91    1.879   .     S
C1899  C1900   1.393   .     A
C1899  H1266   1.116   .     S
C1900  C1901   1.412   .     A
C1900  H1267   1.113   .     S
C1901  C1902   1.413   .     A
C1901  C1966   1.454   .     S
C1902  H1268   1.113   .     S
Si91   C1903   1.877   .     S
Si91   C1914   1.890   .     S
C1903  C1904   1.403   .     A
C1903  C1908   1.403   .     A
C1904  C1905   1.393   .     A
C1904  H1269   1.115   .     S
C1905  C1906   1.413   .     A
C1905  H1270   1.113   .     S
C1906  C1907   1.414   .     A
C1906  C2055   1.455   .     S
C1907  C1908   1.393   .     A
C1907  H1271   1.113   .     S
C1908  H1272   1.116   .     S
C1909  C1910   1.415   .     A
C1909  C1914   1.396   .     A
C1909  H1273   1.115   .     S
C1910  C1911   1.397   .     A
C1910  H1274   1.115   .     S
C1911  C1912   1.395   .     A
C1911  Si92    1.894   .     S
C1912  C1913   1.415   .     A
C1912  H1275   1.115   .     S
C1913  C1914   1.399   .     A
C1913  H1276   1.114   .     S
Si92   C1918   1.891   .     S
Si92   C1921   1.884   .     S
Si92   C1932   1.885   .     S
C1915  C1916   1.423   .     A
C1915  C1920   1.424   .     A
C1915  H1578   1.115   .     S
C1916  C1917   1.422   .     A
C1916  H1277   1.114   .     S
C1917  C1918   1.400   .     A
C1917  H1278   1.115   .     S
C1918  C1919   1.399   .     A
C1919  C1920   1.422   .     A
C1919  H1279   1.115   .     S
C1920  H1280   1.114   .     S
C1921  C1922   1.401   .     A
C1921  C1926   1.401   .     A
C1922  C1923   1.394   .     A
C1922  H1281   1.116   .     S
C1923  C1924   1.413   .     A
C1923  H1282   1.113   .     S
C1924  C1925   1.413   .     A
C1924  C2237   1.456   .     S
C1925  C1926   1.393   .     A
C1925  H1283   1.113   .     S
C1926  H1284   1.116   .     S
C1927  C1928   1.393   .     A
C1927  C1932   1.401   .     A
C1927  H1285   1.116   .     S
C1928  C1929   1.414   .     A
C1928  H1286   1.113   .     S
C1929  C1930   1.413   .     A
C1929  C2326   1.457   .     S
C1930  C1931   1.394   .     A
C1930  H1287   1.113   .     S
C1931  C1932   1.400   .     A
C1931  H1288   1.115   .     S
C1933  C949    1.453   1_564 S
C1933  C1934   1.412   1_554 A
C1933  C1938   1.412   .     A
C1934  C1933   1.412   1_556 A
C1934  C1935   1.394   1_556 A
C1934  H1289   1.113   .     S
C1935  C1934   1.394   1_554 A
C1935  C1936   1.400   .     A
C1935  H1290   1.115   1_554 S
C1936  C1937   1.400   .     A
C1936  Si93    1.884   .     S
C1937  C1938   1.394   .     A
C1937  H1291   1.115   .     S
C1938  H1292   1.114   .     S
H1290  C1935   1.115   1_556 S
C1939  C1940   1.400   .     A
C1939  C1944   1.394   1_554 A
C1939  H1293   1.116   .     S
C1940  C1941   1.400   .     A
C1940  Si93    1.884   .     S
C1941  C1942   1.394   .     A
C1941  H1294   1.116   .     S
C1942  C1943   1.413   .     A
C1942  H1295   1.113   .     S
C1943  C1944   1.412   1_554 A
C1943  C2218   1.457   1_554 S
C1944  C1939   1.394   1_556 A
C1944  C1943   1.412   1_556 A
C1944  H1296   1.113   .     S
Si93   C1945   1.884   .     S
Si93   C1956   1.895   .     S
C1945  C1946   1.401   .     A
C1945  C1950   1.401   1_554 A
C1946  C1947   1.394   .     A
C1946  H1297   1.115   .     S
C1947  C1948   1.413   .     A
C1947  H1298   1.113   .     S
C1948  C1719   1.458   1_554 S
C1948  C1949   1.414   1_554 A
C1949  C1948   1.414   1_556 A
C1949  C1950   1.393   .     A
C1949  H1299   1.113   .     S
C1950  C1945   1.401   1_556 A
C1950  H1300   1.116   .     S
C1951  C1952   1.415   .     A
C1951  C1956   1.394   .     A
C1951  H1301   1.115   .     S
C1952  C1953   1.395   .     A
C1952  H1302   1.115   .     S
C1953  C1954   1.396   .     A
C1953  Si94    1.895   .     S
C1954  C1955   1.416   .     A
C1954  H1303   1.115   .     S
C1955  C1956   1.397   .     A
C1955  H1304   1.115   .     S
Si94   C1960   1.885   .     S
Si94   C1963   1.884   .     S
Si94   C1974   1.885   .     S
C1957  C589    1.453   1_565 S
C1957  C1958   1.413   .     A
C1957  C1962   1.412   .     A
C1958  C1959   1.394   .     A
C1958  H1305   1.113   .     S
C1959  C1960   1.400   .     A
C1959  H1306   1.115   .     S
C1960  C1961   1.400   .     A
C1961  C1962   1.394   .     A
C1961  H1307   1.116   .     S
C1962  H1308   1.113   .     S
C1963  C1964   1.401   .     A
C1963  C1968   1.401   .     A
C1964  C1965   1.394   .     A
C1964  H1309   1.115   .     S
C1965  C1966   1.413   .     A
C1965  H1310   1.113   .     S
C1966  C1967   1.412   .     A
C1967  C1968   1.394   .     A
C1967  H1311   1.114   .     S
C1968  H1312   1.116   .     S
C1969  C1970   1.394   .     A
C1969  C1974   1.400   .     A
C1969  H1313   1.116   .     S
C1970  C1971   1.412   .     A
C1970  H1314   1.113   .     S
C1971  C1972   1.412   .     A
C1972  C1973   1.394   .     A
C1972  H1315   1.113   .     S
C1973  C1974   1.400   .     A
C1973  H1316   1.115   .     S
C1975  C1976   1.412   .     A
C1975  C1980   1.413   .     A
C1976  C1977   1.393   .     A
C1976  H1317   1.113   .     S
C1977  C1978   1.401   .     A
C1977  H1318   1.116   .     S
C1978  C1979   1.401   .     A
C1978  Si95    1.883   .     S
C1979  C1980   1.394   .     A
C1979  H1319   1.116   .     S
C1980  H1320   1.113   .     S
C1981  C1982   1.400   .     A
C1981  C1986   1.394   .     A
C1981  H1321   1.115   .     S
C1982  C1983   1.400   .     A
C1982  Si95    1.885   .     S
C1983  C1984   1.394   .     A
C1983  H1322   1.116   .     S
C1984  C1985   1.412   .     A
C1984  H1323   1.113   .     S
C1985  C1986   1.412   .     A
C1985  C2050   1.454   .     S
C1986  H1324   1.113   .     S
Si95   C1987   1.884   .     S
Si95   C1998   1.895   .     S
C1987  C1988   1.400   .     A
C1987  C1992   1.400   .     A
C1988  C1989   1.394   .     A
C1988  H1325   1.116   .     S
C1989  C1990   1.413   .     A
C1989  H1326   1.113   .     S
C1990  C1425   1.455   1_655 S
C1990  C1991   1.413   .     A
C1991  C1992   1.394   .     A
C1991  H1327   1.113   .     S
C1992  H1328   1.116   .     S
C1993  C1994   1.416   .     A
C1993  C1998   1.394   .     A
C1993  H1329   1.114   .     S
C1994  C1995   1.396   .     A
C1994  H1330   1.115   .     S
C1995  C1996   1.395   .     A
C1995  Si96    1.895   .     S
C1996  C1997   1.416   .     A
C1996  H1331   1.115   .     S
C1997  C1998   1.396   .     A
C1997  H1332   1.115   .     S
Si96   C2002   1.884   .     S
Si96   C2005   1.883   .     S
Si96   C2016   1.885   .     S
C1999  C2000   1.412   .     A
C1999  C2004   1.412   .     A
C1999  C2143   1.453   .     S
C2000  C2001   1.394   .     A
C2000  H1333   1.113   .     S
C2001  C2002   1.400   .     A
C2001  H1334   1.115   .     S
C2002  C2003   1.401   .     A
C2003  C2004   1.393   .     A
C2003  H1335   1.116   .     S
C2004  H1336   1.113   .     S
C2005  C2006   1.401   .     A
C2005  C2010   1.400   .     A
C2006  C2007   1.394   .     A
C2006  H1337   1.116   .     S
C2007  C2008   1.413   .     A
C2007  H1338   1.113   .     S
C2008  C2009   1.414   .     A
C2008  C2321   1.457   .     S
C2009  C2010   1.393   .     A
C2009  H1339   1.113   .     S
C2010  H1340   1.116   .     S
C2011  C2012   1.393   .     A
C2011  C2016   1.400   .     A
C2011  H1341   1.115   .     S
C2012  C2013   1.414   .     A
C2012  H1342   1.113   .     S
C2013  C1654   1.457   1_655 S
C2013  C2014   1.413   .     A
C2014  C2015   1.393   .     A
C2014  H1343   1.113   .     S
C2015  C2016   1.400   .     A
C2015  H1344   1.115   .     S
C2017  C1033   1.453   1_564 S
C2017  C2018   1.412   1_554 A
C2017  C2022   1.412   .     A
C2018  C2017   1.412   1_556 A
C2018  C2019   1.394   1_556 A
C2018  H1345   1.113   .     S
C2019  C2018   1.394   1_554 A
C2019  C2020   1.400   .     A
C2019  H1346   1.115   1_554 S
C2020  C2021   1.400   .     A
C2020  Si97    1.884   .     S
C2021  C2022   1.394   .     A
C2021  H1347   1.116   .     S
C2022  H1348   1.113   .     S
H1346  C2019   1.115   1_556 S
C2023  C2024   1.401   .     A
C2023  C2028   1.393   1_554 A
C2023  H1349   1.115   .     S
C2024  C2025   1.400   .     A
C2024  Si97    1.884   .     S
C2025  C2026   1.393   .     A
C2025  H1350   1.116   .     S
C2026  C2027   1.413   .     A
C2026  H1351   1.113   .     S
C2027  C2028   1.413   1_554 A
C2027  C2302   1.457   1_554 S
C2028  C2027   1.413   1_556 A
C2028  C2023   1.393   1_556 A
C2028  H1352   1.113   .     S
Si97   C2029   1.884   .     S
Si97   C2040   1.895   .     S
C2029  C2030   1.401   .     A
C2029  C2034   1.400   1_554 A
C2030  C2031   1.394   .     A
C2030  H1353   1.115   .     S
C2031  C2032   1.413   .     A
C2031  H1354   1.113   .     S
C2032  C2033   1.414   1_554 A
C2032  C2223   1.457   1_554 S
C2033  C2032   1.414   1_556 A
C2033  C2034   1.393   .     A
C2033  H1355   1.113   .     S
C2034  C2029   1.400   1_556 A
C2034  H1356   1.116   .     S
C2035  C2036   1.416   .     A
C2035  C2040   1.395   .     A
C2035  H1357   1.115   .     S
C2036  C2037   1.395   .     A
C2036  H1358   1.115   .     S
C2037  C2038   1.396   .     A
C2037  Si98    1.895   .     S
C2038  C2039   1.416   .     A
C2038  H1359   1.115   .     S
C2039  C2040   1.396   .     A
C2039  H1360   1.115   .     S
Si98   C2044   1.885   .     S
Si98   C2047   1.884   .     S
Si98   C2058   1.885   .     S
C2041  C673    1.454   1_565 S
C2041  C2042   1.412   .     A
C2041  C2046   1.412   .     A
C2042  C2043   1.394   .     A
C2042  H1361   1.113   .     S
C2043  C2044   1.400   .     A
C2043  H1362   1.115   .     S
C2044  C2045   1.400   .     A
C2045  C2046   1.394   .     A
C2045  H1363   1.116   .     S
C2046  H1364   1.113   .     S
C2047  C2048   1.401   .     A
C2047  C2052   1.401   .     A
C2048  C2049   1.394   .     A
C2048  H1365   1.116   .     S
C2049  C2050   1.412   .     A
C2049  H1366   1.113   .     S
C2050  C2051   1.412   .     A
C2051  C2052   1.394   .     A
C2051  H1367   1.113   .     S
C2052  H1368   1.116   .     S
C2053  C2054   1.394   .     A
C2053  C2058   1.400   .     A
C2053  H1369   1.115   .     S
C2054  C2055   1.412   .     A
C2054  H1370   1.113   .     S
C2055  C2056   1.412   .     A
C2056  C2057   1.394   .     A
C2056  H1371   1.113   .     S
C2057  C2058   1.400   .     A
C2057  H1372   1.115   .     S
C2059  C2060   1.412   .     A
C2059  C2064   1.413   .     A
C2060  C2061   1.394   .     A
C2060  H1373   1.114   .     S
C2061  C2062   1.401   .     A
C2061  H1374   1.116   .     S
C2062  C2063   1.401   .     A
C2062  Si99    1.883   .     S
C2063  C2064   1.393   .     A
C2063  H1375   1.116   .     S
C2064  H1376   1.114   .     S
C2065  C2066   1.400   .     A
C2065  C2070   1.422   .     A
C2065  H1377   1.115   .     S
C2066  C2067   1.400   .     A
C2066  Si99    1.893   .     S
C2067  C2068   1.422   .     A
C2067  H1378   1.115   .     S
C2068  C2069   1.424   .     A
C2068  H1379   1.115   .     S
C2069  C2070   1.424   .     A
C2069  H1579   1.115   .     S
C2070  H1380   1.114   .     S
Si99   C2071   1.884   .     S
Si99   C2082   1.894   .     S
C2071  C2072   1.400   .     A
C2071  C2076   1.400   .     A
C2072  C2073   1.394   .     A
C2072  H1381   1.115   .     S
C2073  C2074   1.413   .     A
C2073  H1382   1.113   .     S
C2074  C2075   1.413   .     A
C2074  C2181   1.455   .     S
C2075  C2076   1.394   .     A
C2075  H1383   1.113   .     S
C2076  H1384   1.116   .     S
C2077  C2078   1.415   .     A
C2077  C2082   1.395   .     A
C2077  H1385   1.115   .     S
C2078  C2079   1.397   .     A
C2078  H1386   1.115   .     S
C2079  C2080   1.397   .     A
C2079  Si100   1.890   .     S
C2080  C2081   1.415   .     A
C2080  H1387   1.115   .     S
C2081  C2082   1.396   .     A
C2081  H1388   1.115   .     S
Si100  C2086   1.877   .     S
Si100  C2089   1.947   .     S
Si100  C2100   1.878   .     S
C2083  C799    1.452   1_556 S
C2083  C2084   1.413   1_556 A
C2083  C2088   1.412   .     A
C2084  C2083   1.413   1_554 A
C2084  C2085   1.393   .     A
C2084  H1389   1.114   .     S
C2085  C2086   1.403   1_554 A
C2085  H1390   1.115   .     S
C2086  C2085   1.403   1_556 A
C2086  C2087   1.403   .     A
C2087  C2088   1.393   .     A
C2087  H1391   1.116   .     S
C2088  H1392   1.113   .     S
C2089  C2090   1.397   .     A
C2089  C2094   1.397   .     A
C2090  C2091   1.463   .     A
C2090  H1393   1.112   .     S
C2091  C2092   1.390   .     A
C2091  H1394   1.118   .     S
C2092  C2093   1.391   .     A
C2093  C2094   1.463   .     A
C2093  H1395   1.118   .     S
C2094  H1396   1.112   .     S
C2095  C2096   1.393   .     A
C2095  C2100   1.403   1_554 A
C2095  H1397   1.115   .     S
C2096  C2097   1.414   1_554 A
C2096  H1398   1.113   .     S
C2097  C2096   1.414   1_556 A
C2097  C1864   1.458   1_556 S
C2097  C2098   1.414   .     A
C2098  C2099   1.392   .     A
C2098  H1399   1.113   .     S
C2099  C2100   1.403   .     A
C2099  H1400   1.115   .     S
C2100  C2095   1.403   1_556 A
C2101  C2102   1.412   .     A
C2101  C2106   1.413   .     A
C2102  C2103   1.394   .     A
C2102  H1401   1.114   .     S
C2103  C2104   1.401   .     A
C2103  H1402   1.116   .     S
C2104  C2105   1.400   .     A
C2104  Si101   1.883   .     S
C2105  C2106   1.394   .     A
C2105  H1403   1.116   .     S
C2106  H1404   1.113   .     S
C2107  C2108   1.400   .     A
C2107  C2112   1.394   .     A
C2107  H1405   1.115   .     S
C2108  C2109   1.401   .     A
C2108  Si101   1.885   .     S
C2109  C2110   1.394   .     A
C2109  H1406   1.116   .     S
C2110  C2111   1.412   .     A
C2110  H1407   1.113   .     S
C2111  C2112   1.412   .     A
C2111  C2176   1.454   .     S
C2112  H1408   1.113   .     S
Si101  C2113   1.884   .     S
Si101  C2124   1.895   .     S
C2113  C2114   1.401   .     A
C2113  C2118   1.400   .     A
C2114  C2115   1.394   .     A
C2114  H1409   1.115   .     S
C2115  C2116   1.413   .     A
C2115  H1410   1.113   .     S
C2116  C1593   1.455   1_655 S
C2116  C2117   1.412   .     A
C2117  C2118   1.394   .     A
C2117  H1411   1.113   .     S
C2118  H1412   1.116   .     S
C2119  C2120   1.416   .     A
C2119  C2124   1.394   .     A
C2119  H1413   1.115   .     S
C2120  C2121   1.395   .     A
C2120  H1414   1.116   .     S
C2121  C2122   1.396   .     A
C2121  Si102   1.895   .     S
C2122  C2123   1.416   .     A
C2122  H1415   1.115   .     S
C2123  C2124   1.396   .     A
C2123  H1416   1.115   .     S
Si102  C2128   1.884   .     S
Si102  C2131   1.884   .     S
Si102  C2142   1.885   .     S
C2125  C883    1.453   1_556 S
C2125  C2126   1.412   1_556 A
C2125  C2130   1.412   .     A
C2126  C2125   1.412   1_554 A
C2126  C2127   1.394   .     A
C2126  H1417   1.114   .     S
C2127  C2128   1.400   1_554 A
C2127  H1418   1.116   .     S
C2128  C2127   1.400   1_556 A
C2128  C2129   1.401   .     A
C2129  C2130   1.394   .     A
C2129  H1419   1.116   .     S
C2130  H1420   1.113   .     S
C2131  C2132   1.401   .     A
C2131  C2136   1.400   .     A
C2132  C2133   1.393   .     A
C2132  H1421   1.116   .     S
C2133  C2134   1.413   .     A
C2133  H1422   1.113   .     S
C2134  C1859   1.456   1_556 S
C2134  C2135   1.414   .     A
C2135  C2136   1.393   .     A
C2135  H1423   1.113   .     S
C2136  H1424   1.116   .     S
C2137  C2138   1.393   .     A
C2137  C2142   1.400   1_554 A
C2137  H1425   1.116   .     S
C2138  C2139   1.413   1_554 A
C2138  H1426   1.113   .     S
C2139  C2138   1.413   1_556 A
C2139  C1318   1.458   1_656 S
C2139  C2140   1.413   .     A
C2140  C2141   1.393   .     A
C2140  H1427   1.113   .     S
C2141  C2142   1.400   .     A
C2141  H1428   1.115   .     S
C2142  C2137   1.400   1_556 A
C2143  C2144   1.412   .     A
C2143  C2148   1.412   .     A
C2144  C2145   1.393   .     A
C2144  H1429   1.114   .     S
C2145  C2146   1.401   .     A
C2145  H1430   1.115   .     S
C2146  C2147   1.401   .     A
C2146  Si103   1.884   .     S
C2147  C2148   1.394   .     A
C2147  H1431   1.116   .     S
C2148  H1432   1.114   .     S
C2149  C2150   1.401   .     A
C2149  C2154   1.393   .     A
C2149  H1433   1.115   .     S
C2150  C2151   1.400   .     A
C2150  Si103   1.884   .     S
C2151  C2152   1.394   .     A
C2151  H1434   1.116   .     S
C2152  C2153   1.413   .     A
C2152  H1435   1.113   .     S
C2153  C2154   1.413   .     A
C2154  H1436   1.114   .     S
Si103  C2155   1.884   .     S
Si103  C2166   1.895   .     S
C2155  C2156   1.400   .     A
C2155  C2160   1.401   .     A
C2156  C2157   1.394   .     A
C2156  H1437   1.115   .     S
C2157  C2158   1.414   .     A
C2157  H1438   1.113   .     S
C2158  C2159   1.414   .     A
C2159  C2160   1.393   .     A
C2159  H1439   1.113   .     S
C2160  H1440   1.116   .     S
C2161  C2162   1.416   .     A
C2161  C2166   1.396   .     A
C2161  H1441   1.114   .     S
C2162  C2163   1.396   .     A
C2162  H1442   1.115   .     S
C2163  C2164   1.396   .     A
C2163  Si104   1.895   .     S
C2164  C2165   1.416   .     A
C2164  H1443   1.115   .     S
C2165  C2166   1.395   .     A
C2165  H1444   1.115   .     S
Si104  C2170   1.885   .     S
Si104  C2173   1.883   .     S
Si104  C2184   1.885   .     S
C2167  C2168   1.412   .     A
C2167  C2172   1.412   .     A
C2167  C2269   1.454   .     S
C2168  C2169   1.394   .     A
C2168  H1445   1.113   .     S
C2169  C2170   1.400   .     A
C2169  H1446   1.115   .     S
C2170  C2171   1.401   .     A
C2171  C2172   1.394   .     A
C2171  H1447   1.116   .     S
C2172  H1448   1.113   .     S
C2173  C2174   1.401   .     A
C2173  C2178   1.401   .     A
C2174  C2175   1.394   .     A
C2174  H1449   1.115   .     S
C2175  C2176   1.412   .     A
C2175  H1450   1.114   .     S
C2176  C2177   1.412   .     A
C2177  C2178   1.394   .     A
C2177  H1451   1.113   .     S
C2178  H1452   1.116   .     S
C2179  C2180   1.394   .     A
C2179  C2184   1.400   .     A
C2179  H1453   1.116   .     S
C2180  C2181   1.412   .     A
C2180  H1454   1.113   .     S
C2181  C2182   1.412   .     A
C2182  C2183   1.394   .     A
C2182  H1455   1.113   .     S
C2183  C2184   1.400   .     A
C2183  H1456   1.115   .     S
C2185  C2186   1.423   .     A
C2185  C2190   1.424   .     A
C2185  H1580   1.114   .     S
C2186  C2187   1.422   .     A
C2186  H1457   1.115   .     S
C2187  C2188   1.400   .     A
C2187  H1458   1.115   .     S
C2188  C2189   1.400   .     A
C2188  Si105   1.890   .     S
C2189  C2190   1.421   .     A
C2189  H1459   1.115   .     S
C2190  H1460   1.115   .     S
C2191  C2192   1.400   .     A
C2191  C2196   1.395   .     A
C2191  H1461   1.115   .     S
C2192  C2193   1.400   .     A
C2192  Si105   1.885   .     S
C2193  C2194   1.394   .     A
C2193  H1462   1.116   .     S
C2194  C2195   1.412   .     A
C2194  H1463   1.113   .     S
C2195  C2196   1.412   .     A
C2195  C2260   1.454   .     S
C2196  H1464   1.113   .     S
Si105  C2197   1.884   .     S
Si105  C2208   1.894   .     S
C2197  C2198   1.400   .     A
C2197  C2202   1.401   .     A
C2198  C2199   1.394   .     A
C2198  H1465   1.115   .     S
C2199  C2200   1.413   .     A
C2199  H1466   1.113   .     S
C2200  C2201   1.413   .     A
C2200  C2349   1.455   .     S
C2201  C2202   1.394   .     A
C2201  H1467   1.113   .     S
C2202  H1468   1.115   .     S
C2203  C2204   1.415   .     A
C2203  C2208   1.396   .     A
C2203  H1469   1.114   .     S
C2204  C2205   1.397   .     A
C2204  H1470   1.115   .     S
C2205  C2206   1.397   .     A
C2205  Si106   1.890   .     S
C2206  C2207   1.415   .     A
C2206  H1471   1.115   .     S
C2207  C2208   1.396   .     A
C2207  H1472   1.115   .     S
Si106  C2212   1.947   .     S
Si106  C2215   1.877   .     S
Si106  C2226   1.878   .     S
C2209  C2210   1.391   1_556 A
C2209  C2214   1.391   .     A
C2210  C2209   1.391   1_554 A
C2210  C2211   1.463   .     A
C2210  H1473   1.118   .     S
C2211  C2212   1.396   1_554 A
C2211  H1474   1.112   .     S
C2212  C2211   1.396   1_556 A
C2212  C2213   1.397   .     A
C2213  C2214   1.463   .     A
C2213  H1475   1.112   .     S
C2214  H1476   1.118   .     S
C2215  C2216   1.403   .     A
C2215  C2220   1.403   .     A
C2216  C2217   1.393   .     A
C2216  H1477   1.116   .     S
C2217  C2218   1.414   .     A
C2217  H1478   1.113   .     S
C2218  C1943   1.457   1_556 S
C2218  C2219   1.414   .     A
C2219  C2220   1.392   .     A
C2219  H1479   1.113   .     S
C2220  H1480   1.116   .     S
C2221  C2222   1.393   .     A
C2221  C2226   1.403   1_554 A
C2221  H1481   1.116   .     S
C2222  C2223   1.414   1_554 A
C2222  H1482   1.113   .     S
C2223  C2032   1.457   1_556 S
C2223  C2222   1.414   1_556 A
C2223  C2224   1.414   .     A
C2224  C2225   1.393   .     A
C2224  H1483   1.113   .     S
C2225  C2226   1.402   .     A
C2225  H1484   1.115   .     S
C2226  C2221   1.403   1_556 A
C2227  C613    1.453   1_565 S
C2227  C2228   1.412   .     A
C2227  C2232   1.412   .     A
C2228  C2229   1.394   .     A
C2228  H1485   1.113   .     S
C2229  C2230   1.400   .     A
C2229  H1486   1.115   .     S
C2230  C2231   1.401   .     A
C2230  Si107   1.885   .     S
C2231  C2232   1.394   .     A
C2231  H1487   1.115   .     S
C2232  H1488   1.113   .     S
C2233  C2234   1.401   .     A
C2233  C2238   1.394   .     A
C2233  H1489   1.116   .     S
C2234  C2235   1.400   .     A
C2234  Si107   1.884   .     S
C2235  C2236   1.393   .     A
C2235  H1490   1.116   .     S
C2236  C2237   1.414   .     A
C2236  H1491   1.113   .     S
C2237  C2238   1.413   .     A
C2238  H1492   1.113   .     S
Si107  C2239   1.884   .     S
Si107  C2250   1.895   .     S
C2239  C2240   1.401   .     A
C2239  C2244   1.401   .     A
C2240  C2241   1.393   .     A
C2240  H1493   1.116   .     S
C2241  C2242   1.413   .     A
C2241  H1494   1.113   .     S
C2242  C2243   1.414   .     A
C2243  C2244   1.393   .     A
C2243  H1495   1.113   .     S
C2244  H1496   1.115   .     S
C2245  C2246   1.415   .     A
C2245  C2250   1.395   .     A
C2245  H1497   1.115   .     S
C2246  C2247   1.395   .     A
C2246  H1498   1.115   .     S
C2247  C2248   1.396   .     A
C2247  Si108   1.895   .     S
C2248  C2249   1.416   .     A
C2248  H1499   1.115   .     S
C2249  C2250   1.396   .     A
C2249  H1500   1.115   .     S
Si108  C2254   1.885   .     S
Si108  C2257   1.883   .     S
Si108  C2268   1.885   .     S
C2251  C925    1.454   1_565 S
C2251  C2252   1.412   .     A
C2251  C2256   1.412   .     A
C2252  C2253   1.394   .     A
C2252  H1501   1.113   .     S
C2253  C2254   1.400   .     A
C2253  H1502   1.115   .     S
C2254  C2255   1.400   .     A
C2255  C2256   1.394   .     A
C2255  H1503   1.116   .     S
C2256  H1504   1.113   .     S
C2257  C2258   1.401   .     A
C2257  C2262   1.401   .     A
C2258  C2259   1.394   .     A
C2258  H1505   1.115   .     S
C2259  C2260   1.412   .     A
C2259  H1506   1.113   .     S
C2260  C2261   1.413   .     A
C2261  C2262   1.394   .     A
C2261  H1507   1.114   .     S
C2262  H1508   1.115   .     S
C2263  C2264   1.394   .     A
C2263  C2268   1.400   .     A
C2263  H1509   1.115   .     S
C2264  C2265   1.413   .     A
C2264  H1510   1.113   .     S
C2265  C2266   1.412   .     A
C2266  C2267   1.394   .     A
C2266  H1511   1.113   .     S
C2267  C2268   1.400   .     A
C2267  H1512   1.115   .     S
C2269  C2270   1.413   .     A
C2269  C2274   1.413   .     A
C2270  C2271   1.394   .     A
C2270  H1513   1.114   .     S
C2271  C2272   1.401   .     A
C2271  H1514   1.116   .     S
C2272  C2273   1.401   .     A
C2272  Si109   1.883   .     S
C2273  C2274   1.394   .     A
C2273  H1515   1.116   .     S
C2274  H1516   1.113   .     S
C2275  C2276   1.400   .     A
C2275  C2280   1.394   .     A
C2275  H1517   1.116   .     S
C2276  C2277   1.400   .     A
C2276  Si109   1.885   .     S
C2277  C2278   1.394   .     A
C2277  H1518   1.116   .     S
C2278  C2279   1.412   .     A
C2278  H1519   1.113   .     S
C2279  C2280   1.412   .     A
C2279  C2344   1.454   .     S
C2280  H1520   1.113   .     S
Si109  C2281   1.884   .     S
Si109  C2292   1.895   .     S
C2281  C2282   1.400   .     A
C2281  C2286   1.401   .     A
C2282  C2283   1.394   .     A
C2282  H1521   1.115   .     S
C2283  C2284   1.413   .     A
C2283  H1522   1.113   .     S
C2284  C1677   1.455   1_655 S
C2284  C2285   1.413   .     A
C2285  C2286   1.394   .     A
C2285  H1523   1.113   .     S
C2286  H1524   1.115   .     S
C2287  C2288   1.416   .     A
C2287  C2292   1.395   .     A
C2287  H1525   1.114   .     S
C2288  C2289   1.395   .     A
C2288  H1526   1.115   .     S
C2289  C2290   1.395   .     A
C2289  Si110   1.895   .     S
C2290  C2291   1.416   .     A
C2290  H1527   1.115   .     S
C2291  C2292   1.396   .     A
C2291  H1528   1.115   .     S
Si110  C2296   1.884   .     S
Si110  C2299   1.884   .     S
Si110  C2310   1.884   .     S
C2293  C1849   1.453   1_556 S
C2293  C2294   1.412   1_556 A
C2293  C2298   1.412   .     A
C2294  C2293   1.412   1_554 A
C2294  C2295   1.394   .     A
C2294  H1529   1.114   .     S
C2295  C2296   1.400   1_554 A
C2295  H1530   1.115   .     S
C2296  C2295   1.400   1_556 A
C2296  C2297   1.401   .     A
C2297  C2298   1.394   .     A
C2297  H1531   1.116   .     S
C2298  H1532   1.113   .     S
C2299  C2300   1.401   .     A
C2299  C2304   1.401   .     A
C2300  C2301   1.393   .     A
C2300  H1533   1.116   .     S
C2301  C2302   1.413   .     A
C2301  H1534   1.113   .     S
C2302  C2027   1.457   1_556 S
C2302  C2303   1.413   .     A
C2303  C2304   1.393   .     A
C2303  H1535   1.113   .     S
C2304  H1536   1.116   .     S
C2305  C2306   1.393   .     A
C2305  C2310   1.401   1_554 A
C2305  H1537   1.115   .     S
C2306  C2307   1.414   1_554 A
C2306  H1538   1.113   .     S
C2307  C2306   1.414   1_556 A
C2307  C1402   1.457   1_656 S
C2307  C2308   1.413   .     A
C2308  C2309   1.393   .     A
C2308  H1539   1.113   .     S
C2309  C2310   1.400   .     A
C2309  H1540   1.115   .     S
C2310  C2305   1.401   1_556 A
C2311  C697    1.453   1_565 S
C2311  C2312   1.411   .     A
C2311  C2316   1.413   .     A
C2312  C2313   1.394   .     A
C2312  H1541   1.114   .     S
C2313  C2314   1.401   .     A
C2313  H1542   1.115   .     S
C2314  C2315   1.400   .     A
C2314  Si111   1.885   .     S
C2315  C2316   1.394   .     A
C2315  H1543   1.116   .     S
C2316  H1544   1.113   .     S
C2317  C2318   1.401   .     A
C2317  C2322   1.394   .     A
C2317  H1545   1.115   .     S
C2318  C2319   1.401   .     A
C2318  Si111   1.883   .     S
C2319  C2320   1.393   .     A
C2319  H1546   1.116   .     S
C2320  C2321   1.413   .     A
C2320  H1547   1.113   .     S
C2321  C2322   1.412   .     A
C2322  H1548   1.113   .     S
Si111  C2323   1.884   .     S
Si111  C2334   1.895   .     S
C2323  C2324   1.401   .     A
C2323  C2328   1.401   .     A
C2324  C2325   1.394   .     A
C2324  H1549   1.116   .     S
C2325  C2326   1.413   .     A
C2325  H1550   1.113   .     S
C2326  C2327   1.414   .     A
C2327  C2328   1.393   .     A
C2327  H1551   1.113   .     S
C2328  H1552   1.116   .     S
C2329  C2330   1.416   .     A
C2329  C2334   1.394   .     A
C2329  H1553   1.115   .     S
C2330  C2331   1.395   .     A
C2330  H1554   1.115   .     S
C2331  C2332   1.396   .     A
C2331  Si112   1.895   .     S
C2332  C2333   1.416   .     A
C2332  H1555   1.115   .     S
C2333  C2334   1.396   .     A
C2333  H1556   1.115   .     S
Si112  C2338   1.885   .     S
Si112  C2341   1.884   .     S
Si112  C2352   1.886   .     S
C2335  C1009   1.454   1_565 S
C2335  C2336   1.412   .     A
C2335  C2340   1.412   .     A
C2336  C2337   1.394   .     A
C2336  H1557   1.113   .     S
C2337  C2338   1.400   .     A
C2337  H1558   1.115   .     S
C2338  C2339   1.400   .     A
C2339  C2340   1.394   .     A
C2339  H1559   1.116   .     S
C2340  H1560   1.113   .     S
C2341  C2342   1.401   .     A
C2341  C2346   1.401   .     A
C2342  C2343   1.394   .     A
C2342  H1561   1.115   .     S
C2343  C2344   1.412   .     A
C2343  H1562   1.113   .     S
C2344  C2345   1.412   .     A
C2345  C2346   1.393   .     A
C2345  H1563   1.114   .     S
C2346  H1564   1.116   .     S
C2347  C2348   1.394   .     A
C2347  C2352   1.400   .     A
C2347  H1565   1.116   .     S
C2348  C2349   1.412   .     A
C2348  H1566   1.113   .     S
C2349  C2350   1.413   .     A
C2350  C2351   1.394   .     A
C2350  H1567   1.113   .     S
C2351  C2352   1.400   .     A
C2351  H1568   1.115   .     S
