data_C_acs_dftb_opt2
_audit_creation_date              2023-10-04
_audit_creation_method            'Materials Studio'
_symmetry_space_group_name_H-M    'P1'
_symmetry_Int_Tables_number       1
_symmetry_cell_setting            triclinic
loop_
_symmetry_equiv_pos_as_xyz
  x,y,z
_cell_length_a                    32.7200
_cell_length_b                    33.4622
_cell_length_c                    36.8690
_cell_angle_alpha                 89.9307
_cell_angle_beta                  90.0542
_cell_angle_gamma                 118.6427
loop_
_atom_site_label
_atom_site_type_symbol
_atom_site_fract_x
_atom_site_fract_y
_atom_site_fract_z
_atom_site_U_iso_or_equiv
_atom_site_adp_type
_atom_site_occupancy
C1     C     0.27150   0.02884   0.26034   0.00000  Uiso   1.00
C2     C     0.31855   0.05691   0.25263   0.00000  Uiso   1.00
C3     C     0.34146   0.10186   0.26399   0.00000  Uiso   1.00
C4     C     0.31815   0.12041   0.28343   0.00000  Uiso   1.00
C5     C     0.27166   0.09173   0.29274   0.00000  Uiso   1.00
C6     C     0.24861   0.04691   0.28121   0.00000  Uiso   1.00
H7     H     0.33794   0.04355   0.23776   0.00000  Uiso   1.00
H8     H     0.37803   0.12227   0.25743   0.00000  Uiso   1.00
H9     H     0.25315   0.10478   0.30914   0.00000  Uiso   1.00
H10    H     0.21217   0.02607   0.28811   0.00000  Uiso   1.00
C11    C     0.27951   0.17571   0.25584   0.00000  Uiso   1.00
C12    C     0.31821   0.19586   0.27847   0.00000  Uiso   1.00
C13    C     0.33741   0.24255   0.28511   0.00000  Uiso   1.00
C14    C     0.31630   0.26709   0.27237   0.00000  Uiso   1.00
C15    C     0.27573   0.24623   0.25143   0.00000  Uiso   1.00
C16    C     0.25884   0.20044   0.24245   0.00000  Uiso   1.00
C17    C     0.34116   0.17001   0.29591   0.00000  Uiso   1.00
C18    C     0.39223   0.19605   0.28441   0.00000  Uiso   1.00
C19    C     0.42911   0.21557   0.30878   0.00000  Uiso   1.00
C20    C     0.47465   0.24009   0.29657   0.00000  Uiso   1.00
C21    C     0.48498   0.24552   0.25956   0.00000  Uiso   1.00
C22    C     0.44773   0.22599   0.23517   0.00000  Uiso   1.00
C23    C     0.40232   0.20230   0.24738   0.00000  Uiso   1.00
C24    C     0.32159   0.19504   0.35652   0.00000  Uiso   1.00
C25    C     0.32032   0.19433   0.39413   0.00000  Uiso   1.00
C26    C     0.33266   0.16641   0.41397   0.00000  Uiso   1.00
C27    C     0.34530   0.13812   0.39460   0.00000  Uiso   1.00
C28    C     0.34774   0.13972   0.35708   0.00000  Uiso   1.00
C29    C     0.33653   0.16878   0.33729   0.00000  Uiso   1.00
C30    C     0.33348   0.16686   0.45553   0.00000  Uiso   1.00
C31    C     0.26270   0.02783   0.49685   0.00000  Uiso   1.00
C32    C     0.29959   0.06223   0.51596   0.00000  Uiso   1.00
C33    C     0.32269   0.10636   0.50269   0.00000  Uiso   1.00
C34    C     0.30983   0.11790   0.46992   0.00000  Uiso   1.00
C35    C     0.27270   0.08354   0.45090   0.00000  Uiso   1.00
C36    C     0.24979   0.03935   0.46396   0.00000  Uiso   1.00
C37    C     0.30680   0.19121   0.46882   0.00000  Uiso   1.00
C38    C     0.32937   0.23867   0.47129   0.00000  Uiso   1.00
C39    C     0.30567   0.26162   0.48184   0.00000  Uiso   1.00
C40    C     0.25800   0.23816   0.48946   0.00000  Uiso   1.00
C41    C     0.23528   0.19080   0.48615   0.00000  Uiso   1.00
C42    C     0.25928   0.16782   0.47621   0.00000  Uiso   1.00
C43    C     0.39363   0.21108   0.50396   0.00000  Uiso   1.00
C44    C     0.43880   0.23416   0.51702   0.00000  Uiso   1.00
C45    C     0.47637   0.23868   0.49608   0.00000  Uiso   1.00
C46    C     0.46652   0.21889   0.46166   0.00000  Uiso   1.00
C47    C     0.42140   0.19652   0.44845   0.00000  Uiso   1.00
C48    C     0.38393   0.19218   0.46916   0.00000  Uiso   1.00
H49    H     0.26471   0.14020   0.24826   0.00000  Uiso   1.00
H50    H     0.36921   0.25999   0.30084   0.00000  Uiso   1.00
H51    H     0.33139   0.30279   0.27951   0.00000  Uiso   1.00
H52    H     0.22895   0.18333   0.22472   0.00000  Uiso   1.00
H53    H     0.42273   0.21217   0.33775   0.00000  Uiso   1.00
H54    H     0.50234   0.25556   0.31645   0.00000  Uiso   1.00
H55    H     0.45406   0.22889   0.20619   0.00000  Uiso   1.00
H56    H     0.37413   0.18832   0.22778   0.00000  Uiso   1.00
H57    H     0.31065   0.21686   0.34265   0.00000  Uiso   1.00
H58    H     0.30925   0.21625   0.40763   0.00000  Uiso   1.00
H59    H     0.35328   0.11435   0.40890   0.00000  Uiso   1.00
H60    H     0.35852   0.11787   0.34300   0.00000  Uiso   1.00
H61    H     0.31023   0.05482   0.54186   0.00000  Uiso   1.00
H62    H     0.35118   0.13185   0.51848   0.00000  Uiso   1.00
H63    H     0.26150   0.09114   0.42533   0.00000  Uiso   1.00
H64    H     0.22168   1.01343   0.44804   0.00000  Uiso   1.00
H65    H     0.36613   0.25823   0.46495   0.00000  Uiso   1.00
H66    H     0.32490   0.29837   0.48437   0.00000  Uiso   1.00
H67    H     0.19810   0.17126   0.49091   0.00000  Uiso   1.00
H68    H     0.24016   0.13103   0.47408   0.00000  Uiso   1.00
H69    H     0.36558   0.20855   0.52111   0.00000  Uiso   1.00
H70    H     0.44465   0.24933   0.54378   0.00000  Uiso   1.00
H71    H     0.49430   0.22057   0.44469   0.00000  Uiso   1.00
H72    H     0.41616   0.18265   0.42129   0.00000  Uiso   1.00
C73    C     0.23810   0.48071   0.01053   0.00000  Uiso   1.00
C74    C     0.19067   0.45314   0.00393   0.00000  Uiso   1.00
C75    C     0.16778   0.40812   0.01523   0.00000  Uiso   1.00
C76    C     0.19152   0.38900   0.03339   0.00000  Uiso   1.00
C77    C     0.23846   0.41722   0.04168   0.00000  Uiso   1.00
C78    C     0.26146   0.46210   0.03024   0.00000  Uiso   1.00
H79    H     0.17095   0.46694   0.99005   0.00000  Uiso   1.00
H80    H     0.13087   0.38811   0.00965   0.00000  Uiso   1.00
H81    H     0.25735   0.40376   0.05718   0.00000  Uiso   1.00
H82    H     0.29823   0.48260   0.03623   0.00000  Uiso   1.00
C83    C     0.22872   0.33307   0.00466   0.00000  Uiso   1.00
C84    C     0.19122   0.31337   0.02845   0.00000  Uiso   1.00
C85    C     0.17291   0.26700   0.03615   0.00000  Uiso   1.00
C86    C     0.19394   0.24246   0.02332   0.00000  Uiso   1.00
C87    C     0.23342   0.26300   0.00121   0.00000  Uiso   1.00
C88    C     0.24932   0.30834  -0.00879   0.00000  Uiso   1.00
C89    C     0.16846   0.33937   0.04584   0.00000  Uiso   1.00
C90    C     0.11741   0.31332   0.03426   0.00000  Uiso   1.00
C91    C     0.08066   0.29224   0.05858   0.00000  Uiso   1.00
C92    C     0.03513   0.26782   0.04633   0.00000  Uiso   1.00
C93    C     0.02469   0.26391   0.00934   0.00000  Uiso   1.00
C94    C     0.06182   0.28479  -0.01501   0.00000  Uiso   1.00
C95    C     0.10724   0.30849  -0.00280   0.00000  Uiso   1.00
C96    C     0.18939   0.31559   0.10659   0.00000  Uiso   1.00
C97    C     0.19049   0.31626   0.14420   0.00000  Uiso   1.00
C98    C     0.17688   0.34325   0.16394   0.00000  Uiso   1.00
C99    C     0.16339   0.37087   0.14442   0.00000  Uiso   1.00
C100   C     0.16090   0.36911   0.10690   0.00000  Uiso   1.00
C101   C     0.17314   0.34076   0.08723   0.00000  Uiso   1.00
C102   C     0.17602   0.34279   0.20549   0.00000  Uiso   1.00
C103   C     0.24692   0.48178   0.24662   0.00000  Uiso   1.00
C104   C     0.21066   0.44718   0.26610   0.00000  Uiso   1.00
C105   C     0.18751   0.40307   0.25289   0.00000  Uiso   1.00
C106   C     0.19974   0.39173   0.21981   0.00000  Uiso   1.00
C107   C     0.23632   0.42623   0.20045   0.00000  Uiso   1.00
C108   C     0.25924   0.47043   0.21343   0.00000  Uiso   1.00
C109   C     0.20260   0.31838   0.21892   0.00000  Uiso   1.00
C110   C     0.18005   0.27089   0.22101   0.00000  Uiso   1.00
C111   C     0.20360   0.24785   0.23173   0.00000  Uiso   1.00
C112   C     0.25117   0.27120   0.23980   0.00000  Uiso   1.00
C113   C     0.27383   0.31863   0.23696   0.00000  Uiso   1.00
C114   C     0.24994   0.34172   0.22694   0.00000  Uiso   1.00
C115   C     0.11597   0.29812   0.25384   0.00000  Uiso   1.00
C116   C     0.07086   0.27489   0.26695   0.00000  Uiso   1.00
C117   C     0.03324   0.27089   0.24628   0.00000  Uiso   1.00
C118   C     0.04306   0.29135   0.21209   0.00000  Uiso   1.00
C119   C     0.08812   0.31374   0.19878   0.00000  Uiso   1.00
C120   C     0.12561   0.31754   0.21920   0.00000  Uiso   1.00
H121   H     0.24263   0.36821  -0.00377   0.00000  Uiso   1.00
H122   H     0.14193   0.24983   0.05282   0.00000  Uiso   1.00
H123   H     0.17981   0.20709   0.03130   0.00000  Uiso   1.00
H124   H     0.27831   0.32500  -0.02742   0.00000  Uiso   1.00
H125   H     0.08716   0.29442   0.08753   0.00000  Uiso   1.00
H126   H     1.00752   0.25114   0.06609   0.00000  Uiso   1.00
H127   H     0.05535   0.28300   0.95603   0.00000  Uiso   1.00
H128   H     0.13534   0.32360  -0.02238   0.00000  Uiso   1.00
H129   H     0.20151   0.29467   0.09283   0.00000  Uiso   1.00
H130   H     0.20252   0.29511   0.15779   0.00000  Uiso   1.00
H131   H     0.15488   0.39431   0.15859   0.00000  Uiso   1.00
H132   H     0.14931   0.39030   0.09272   0.00000  Uiso   1.00
H133   H     0.20061   0.45446   0.29227   0.00000  Uiso   1.00
H134   H     0.15954   0.37740   0.26898   0.00000  Uiso   1.00
H135   H     0.24710   0.41871   0.17470   0.00000  Uiso   1.00
H136   H     0.28681   0.49641   0.19719   0.00000  Uiso   1.00
H137   H     0.14342   0.25140   0.21422   0.00000  Uiso   1.00
H138   H     0.18427   0.21108   0.23396   0.00000  Uiso   1.00
H139   H     0.31088   0.33823   0.24220   0.00000  Uiso   1.00
H140   H     0.26903   0.37855   0.22522   0.00000  Uiso   1.00
H141   H     0.14404   0.30029   0.27082   0.00000  Uiso   1.00
H142   H     0.06508   0.25922   0.29353   0.00000  Uiso   1.00
H143   H     0.01532   0.29026   0.19532   0.00000  Uiso   1.00
H144   H     0.09325   0.32802   0.17175   0.00000  Uiso   1.00
C145   C     0.77150   0.02884   0.26034   0.00000  Uiso   1.00
C146   C     0.81855   0.05691   0.25263   0.00000  Uiso   1.00
C147   C     0.84146   0.10186   0.26399   0.00000  Uiso   1.00
C148   C     0.81815   0.12041   0.28343   0.00000  Uiso   1.00
C149   C     0.77166   0.09173   0.29274   0.00000  Uiso   1.00
C150   C     0.74861   0.04691   0.28121   0.00000  Uiso   1.00
H151   H     0.83794   0.04355   0.23776   0.00000  Uiso   1.00
H152   H     0.87803   0.12227   0.25743   0.00000  Uiso   1.00
H153   H     0.75316   0.10478   0.30914   0.00000  Uiso   1.00
H154   H     0.71217   0.02607   0.28811   0.00000  Uiso   1.00
C155   C     0.77951   0.17571   0.25584   0.00000  Uiso   1.00
C156   C     0.81820   0.19586   0.27847   0.00000  Uiso   1.00
C157   C     0.83741   0.24255   0.28511   0.00000  Uiso   1.00
C158   C     0.81630   0.26709   0.27237   0.00000  Uiso   1.00
C159   C     0.77573   0.24623   0.25143   0.00000  Uiso   1.00
C160   C     0.75884   0.20044   0.24245   0.00000  Uiso   1.00
C161   C     0.84116   0.17001   0.29591   0.00000  Uiso   1.00
C162   C     0.89223   0.19605   0.28441   0.00000  Uiso   1.00
C163   C     0.92911   0.21557   0.30878   0.00000  Uiso   1.00
C164   C     0.97465   0.24009   0.29657   0.00000  Uiso   1.00
C165   C     0.98498   0.24552   0.25956   0.00000  Uiso   1.00
C166   C     0.94773   0.22599   0.23517   0.00000  Uiso   1.00
C167   C     0.90232   0.20230   0.24738   0.00000  Uiso   1.00
C168   C     0.82159   0.19504   0.35652   0.00000  Uiso   1.00
C169   C     0.82032   0.19433   0.39413   0.00000  Uiso   1.00
C170   C     0.83266   0.16641   0.41397   0.00000  Uiso   1.00
C171   C     0.84530   0.13812   0.39460   0.00000  Uiso   1.00
C172   C     0.84774   0.13972   0.35708   0.00000  Uiso   1.00
C173   C     0.83653   0.16878   0.33729   0.00000  Uiso   1.00
C174   C     0.83348   0.16686   0.45553   0.00000  Uiso   1.00
C175   C     0.76270   0.02782   0.49685   0.00000  Uiso   1.00
C176   C     0.79959   0.06223   0.51596   0.00000  Uiso   1.00
C177   C     0.82269   0.10636   0.50269   0.00000  Uiso   1.00
C178   C     0.80983   0.11790   0.46992   0.00000  Uiso   1.00
C179   C     0.77270   0.08354   0.45090   0.00000  Uiso   1.00
C180   C     0.74979   0.03935   0.46396   0.00000  Uiso   1.00
C181   C     0.80680   0.19121   0.46882   0.00000  Uiso   1.00
C182   C     0.82937   0.23867   0.47129   0.00000  Uiso   1.00
C183   C     0.80567   0.26162   0.48184   0.00000  Uiso   1.00
C184   C     0.75801   0.23816   0.48946   0.00000  Uiso   1.00
C185   C     0.73528   0.19080   0.48615   0.00000  Uiso   1.00
C186   C     0.75928   0.16782   0.47621   0.00000  Uiso   1.00
C187   C     0.89363   0.21108   0.50396   0.00000  Uiso   1.00
C188   C     0.93880   0.23416   0.51702   0.00000  Uiso   1.00
C189   C     0.97637   0.23868   0.49608   0.00000  Uiso   1.00
C190   C     0.96652   0.21889   0.46166   0.00000  Uiso   1.00
C191   C     0.92140   0.19652   0.44845   0.00000  Uiso   1.00
C192   C     0.88393   0.19218   0.46916   0.00000  Uiso   1.00
H193   H     0.76471   0.14020   0.24826   0.00000  Uiso   1.00
H194   H     0.86921   0.25999   0.30084   0.00000  Uiso   1.00
H195   H     0.83139   0.30279   0.27951   0.00000  Uiso   1.00
H196   H     0.72895   0.18333   0.22472   0.00000  Uiso   1.00
H197   H     0.92273   0.21217   0.33775   0.00000  Uiso   1.00
H198   H     1.00234   0.25556   0.31645   0.00000  Uiso   1.00
H199   H     0.95406   0.22889   0.20619   0.00000  Uiso   1.00
H200   H     0.87413   0.18832   0.22778   0.00000  Uiso   1.00
H201   H     0.81065   0.21686   0.34265   0.00000  Uiso   1.00
H202   H     0.80925   0.21625   0.40763   0.00000  Uiso   1.00
H203   H     0.85328   0.11435   0.40890   0.00000  Uiso   1.00
H204   H     0.85852   0.11787   0.34300   0.00000  Uiso   1.00
H205   H     0.81023   0.05482   0.54186   0.00000  Uiso   1.00
H206   H     0.85118   0.13185   0.51848   0.00000  Uiso   1.00
H207   H     0.76150   0.09114   0.42533   0.00000  Uiso   1.00
H208   H     0.72168   1.01343   0.44804   0.00000  Uiso   1.00
H209   H     0.86613   0.25823   0.46495   0.00000  Uiso   1.00
H210   H     0.82490   0.29837   0.48437   0.00000  Uiso   1.00
H211   H     0.69811   0.17126   0.49091   0.00000  Uiso   1.00
H212   H     0.74016   0.13103   0.47408   0.00000  Uiso   1.00
H213   H     0.86558   0.20855   0.52111   0.00000  Uiso   1.00
H214   H     0.94465   0.24933   0.54378   0.00000  Uiso   1.00
H215   H    -0.00570   0.22057   0.44469   0.00000  Uiso   1.00
H216   H     0.91616   0.18265   0.42129   0.00000  Uiso   1.00
C217   C     0.73810   0.48071   0.01053   0.00000  Uiso   1.00
C218   C     0.69067   0.45314   0.00393   0.00000  Uiso   1.00
C219   C     0.66778   0.40812   0.01523   0.00000  Uiso   1.00
C220   C     0.69152   0.38900   0.03339   0.00000  Uiso   1.00
C221   C     0.73846   0.41722   0.04168   0.00000  Uiso   1.00
C222   C     0.76146   0.46210   0.03024   0.00000  Uiso   1.00
H223   H     0.67095   0.46694   0.99005   0.00000  Uiso   1.00
H224   H     0.63087   0.38811   0.00965   0.00000  Uiso   1.00
H225   H     0.75735   0.40376   0.05718   0.00000  Uiso   1.00
H226   H     0.79823   0.48260   0.03623   0.00000  Uiso   1.00
C227   C     0.72872   0.33307   0.00466   0.00000  Uiso   1.00
C228   C     0.69122   0.31337   0.02845   0.00000  Uiso   1.00
C229   C     0.67291   0.26700   0.03615   0.00000  Uiso   1.00
C230   C     0.69394   0.24246   0.02332   0.00000  Uiso   1.00
C231   C     0.73342   0.26300   0.00121   0.00000  Uiso   1.00
C232   C     0.74933   0.30834  -0.00879   0.00000  Uiso   1.00
C233   C     0.66846   0.33937   0.04584   0.00000  Uiso   1.00
C234   C     0.61741   0.31332   0.03426   0.00000  Uiso   1.00
C235   C     0.58066   0.29224   0.05858   0.00000  Uiso   1.00
C236   C     0.53513   0.26782   0.04633   0.00000  Uiso   1.00
C237   C     0.52469   0.26391   0.00935   0.00000  Uiso   1.00
C238   C     0.56182   0.28479  -0.01501   0.00000  Uiso   1.00
C239   C     0.60724   0.30849  -0.00279   0.00000  Uiso   1.00
C240   C     0.68940   0.31559   0.10659   0.00000  Uiso   1.00
C241   C     0.69049   0.31626   0.14420   0.00000  Uiso   1.00
C242   C     0.67688   0.34325   0.16394   0.00000  Uiso   1.00
C243   C     0.66339   0.37087   0.14442   0.00000  Uiso   1.00
C244   C     0.66090   0.36911   0.10690   0.00000  Uiso   1.00
C245   C     0.67314   0.34076   0.08723   0.00000  Uiso   1.00
C246   C     0.67602   0.34279   0.20549   0.00000  Uiso   1.00
C247   C     0.74692   0.48178   0.24662   0.00000  Uiso   1.00
C248   C     0.71066   0.44718   0.26610   0.00000  Uiso   1.00
C249   C     0.68751   0.40307   0.25289   0.00000  Uiso   1.00
C250   C     0.69974   0.39173   0.21981   0.00000  Uiso   1.00
C251   C     0.73632   0.42623   0.20045   0.00000  Uiso   1.00
C252   C     0.75924   0.47043   0.21343   0.00000  Uiso   1.00
C253   C     0.70260   0.31838   0.21892   0.00000  Uiso   1.00
C254   C     0.68005   0.27089   0.22101   0.00000  Uiso   1.00
C255   C     0.70360   0.24785   0.23173   0.00000  Uiso   1.00
C256   C     0.75118   0.27120   0.23980   0.00000  Uiso   1.00
C257   C     0.77383   0.31863   0.23696   0.00000  Uiso   1.00
C258   C     0.74994   0.34172   0.22694   0.00000  Uiso   1.00
C259   C     0.61597   0.29812   0.25384   0.00000  Uiso   1.00
C260   C     0.57086   0.27489   0.26695   0.00000  Uiso   1.00
C261   C     0.53324   0.27089   0.24628   0.00000  Uiso   1.00
C262   C     0.54306   0.29135   0.21209   0.00000  Uiso   1.00
C263   C     0.58812   0.31374   0.19878   0.00000  Uiso   1.00
C264   C     0.62561   0.31754   0.21920   0.00000  Uiso   1.00
H265   H     0.74263   0.36821  -0.00377   0.00000  Uiso   1.00
H266   H     0.64193   0.24983   0.05282   0.00000  Uiso   1.00
H267   H     0.67981   0.20709   0.03130   0.00000  Uiso   1.00
H268   H     0.77831   0.32500  -0.02742   0.00000  Uiso   1.00
H269   H     0.58716   0.29442   0.08753   0.00000  Uiso   1.00
H270   H     0.50752   0.25114   0.06609   0.00000  Uiso   1.00
H271   H     0.55535   0.28300   0.95603   0.00000  Uiso   1.00
H272   H     0.63534   0.32360  -0.02238   0.00000  Uiso   1.00
H273   H     0.70151   0.29467   0.09283   0.00000  Uiso   1.00
H274   H     0.70252   0.29511   0.15779   0.00000  Uiso   1.00
H275   H     0.65489   0.39431   0.15859   0.00000  Uiso   1.00
H276   H     0.64931   0.39030   0.09272   0.00000  Uiso   1.00
H277   H     0.70061   0.45446   0.29227   0.00000  Uiso   1.00
H278   H     0.65954   0.37740   0.26898   0.00000  Uiso   1.00
H279   H     0.74710   0.41871   0.17470   0.00000  Uiso   1.00
H280   H     0.78681   0.49641   0.19719   0.00000  Uiso   1.00
H281   H     0.64342   0.25140   0.21422   0.00000  Uiso   1.00
H282   H     0.68427   0.21108   0.23396   0.00000  Uiso   1.00
H283   H     0.81088   0.33823   0.24220   0.00000  Uiso   1.00
H284   H     0.76903   0.37855   0.22522   0.00000  Uiso   1.00
H285   H     0.64404   0.30029   0.27082   0.00000  Uiso   1.00
H286   H     0.56508   0.25922   0.29353   0.00000  Uiso   1.00
H287   H     0.51532   0.29026   0.19532   0.00000  Uiso   1.00
H288   H     0.59325   0.32802   0.17175   0.00000  Uiso   1.00
C289   C     0.27150   0.52884   0.26034   0.00000  Uiso   1.00
C290   C     0.31855   0.55691   0.25263   0.00000  Uiso   1.00
C291   C     0.34146   0.60186   0.26399   0.00000  Uiso   1.00
C292   C     0.31815   0.62041   0.28343   0.00000  Uiso   1.00
C293   C     0.27166   0.59173   0.29274   0.00000  Uiso   1.00
C294   C     0.24861   0.54691   0.28121   0.00000  Uiso   1.00
H295   H     0.33794   0.54355   0.23776   0.00000  Uiso   1.00
H296   H     0.37803   0.62227   0.25743   0.00000  Uiso   1.00
H297   H     0.25315   0.60478   0.30914   0.00000  Uiso   1.00
H298   H     0.21217   0.52607   0.28811   0.00000  Uiso   1.00
C299   C     0.27951   0.67571   0.25584   0.00000  Uiso   1.00
C300   C     0.31821   0.69586   0.27847   0.00000  Uiso   1.00
C301   C     0.33741   0.74255   0.28511   0.00000  Uiso   1.00
C302   C     0.31630   0.76709   0.27237   0.00000  Uiso   1.00
C303   C     0.27573   0.74623   0.25143   0.00000  Uiso   1.00
C304   C     0.25884   0.70044   0.24245   0.00000  Uiso   1.00
C305   C     0.34116   0.67001   0.29591   0.00000  Uiso   1.00
C306   C     0.39223   0.69605   0.28441   0.00000  Uiso   1.00
C307   C     0.42911   0.71557   0.30878   0.00000  Uiso   1.00
C308   C     0.47465   0.74009   0.29657   0.00000  Uiso   1.00
C309   C     0.48498   0.74552   0.25957   0.00000  Uiso   1.00
C310   C     0.44773   0.72599   0.23517   0.00000  Uiso   1.00
C311   C     0.40232   0.70230   0.24738   0.00000  Uiso   1.00
C312   C     0.32159   0.69504   0.35652   0.00000  Uiso   1.00
C313   C     0.32032   0.69433   0.39413   0.00000  Uiso   1.00
C314   C     0.33266   0.66641   0.41397   0.00000  Uiso   1.00
C315   C     0.34530   0.63812   0.39460   0.00000  Uiso   1.00
C316   C     0.34774   0.63972   0.35708   0.00000  Uiso   1.00
C317   C     0.33653   0.66878   0.33729   0.00000  Uiso   1.00
C318   C     0.33348   0.66686   0.45553   0.00000  Uiso   1.00
C319   C     0.26270   0.52783   0.49685   0.00000  Uiso   1.00
C320   C     0.29959   0.56223   0.51596   0.00000  Uiso   1.00
C321   C     0.32269   0.60636   0.50269   0.00000  Uiso   1.00
C322   C     0.30983   0.61790   0.46992   0.00000  Uiso   1.00
C323   C     0.27270   0.58354   0.45090   0.00000  Uiso   1.00
C324   C     0.24979   0.53935   0.46396   0.00000  Uiso   1.00
C325   C     0.30680   0.69121   0.46882   0.00000  Uiso   1.00
C326   C     0.32937   0.73867   0.47129   0.00000  Uiso   1.00
C327   C     0.30567   0.76162   0.48184   0.00000  Uiso   1.00
C328   C     0.25800   0.73816   0.48946   0.00000  Uiso   1.00
C329   C     0.23528   0.69080   0.48615   0.00000  Uiso   1.00
C330   C     0.25928   0.66782   0.47621   0.00000  Uiso   1.00
C331   C     0.39363   0.71108   0.50396   0.00000  Uiso   1.00
C332   C     0.43880   0.73416   0.51702   0.00000  Uiso   1.00
C333   C     0.47637   0.73868   0.49608   0.00000  Uiso   1.00
C334   C     0.46652   0.71889   0.46166   0.00000  Uiso   1.00
C335   C     0.42140   0.69652   0.44845   0.00000  Uiso   1.00
C336   C     0.38393   0.69218   0.46916   0.00000  Uiso   1.00
H337   H     0.26471   0.64020   0.24826   0.00000  Uiso   1.00
H338   H     0.36921   0.75999   0.30084   0.00000  Uiso   1.00
H339   H     0.33139   0.80279   0.27951   0.00000  Uiso   1.00
H340   H     0.22895   0.68333   0.22472   0.00000  Uiso   1.00
H341   H     0.42273   0.71217   0.33775   0.00000  Uiso   1.00
H342   H     0.50234   0.75556   0.31645   0.00000  Uiso   1.00
H343   H     0.45406   0.72889   0.20619   0.00000  Uiso   1.00
H344   H     0.37413   0.68832   0.22778   0.00000  Uiso   1.00
H345   H     0.31065   0.71686   0.34265   0.00000  Uiso   1.00
H346   H     0.30925   0.71625   0.40763   0.00000  Uiso   1.00
H347   H     0.35328   0.61435   0.40890   0.00000  Uiso   1.00
H348   H     0.35852   0.61787   0.34300   0.00000  Uiso   1.00
H349   H     0.31023   0.55482   0.54186   0.00000  Uiso   1.00
H350   H     0.35118   0.63185   0.51848   0.00000  Uiso   1.00
H351   H     0.26150   0.59114   0.42533   0.00000  Uiso   1.00
H352   H     0.22168   0.51343   0.44804   0.00000  Uiso   1.00
H353   H     0.36613   0.75823   0.46495   0.00000  Uiso   1.00
H354   H     0.32490   0.79837   0.48437   0.00000  Uiso   1.00
H355   H     0.19810   0.67126   0.49091   0.00000  Uiso   1.00
H356   H     0.24016   0.63103   0.47408   0.00000  Uiso   1.00
H357   H     0.36558   0.70855   0.52111   0.00000  Uiso   1.00
H358   H     0.44465   0.74933   0.54378   0.00000  Uiso   1.00
H359   H     0.49430   0.72058   0.44469   0.00000  Uiso   1.00
H360   H     0.41616   0.68265   0.42129   0.00000  Uiso   1.00
C361   C     0.23810   0.98071   0.01053   0.00000  Uiso   1.00
C362   C     0.19067   0.95314   0.00393   0.00000  Uiso   1.00
C363   C     0.16778   0.90812   0.01523   0.00000  Uiso   1.00
C364   C     0.19152   0.88900   0.03339   0.00000  Uiso   1.00
C365   C     0.23846   0.91722   0.04168   0.00000  Uiso   1.00
C366   C     0.26146   0.96210   0.03024   0.00000  Uiso   1.00
H367   H     0.17095   0.96694   0.99005   0.00000  Uiso   1.00
H368   H     0.13087   0.88811   0.00965   0.00000  Uiso   1.00
H369   H     0.25735   0.90376   0.05718   0.00000  Uiso   1.00
H370   H     0.29823   0.98260   0.03623   0.00000  Uiso   1.00
C371   C     0.22872   0.83306   0.00466   0.00000  Uiso   1.00
C372   C     0.19122   0.81337   0.02845   0.00000  Uiso   1.00
C373   C     0.17291   0.76700   0.03615   0.00000  Uiso   1.00
C374   C     0.19394   0.74246   0.02332   0.00000  Uiso   1.00
C375   C     0.23342   0.76300   0.00121   0.00000  Uiso   1.00
C376   C     0.24932   0.80834  -0.00879   0.00000  Uiso   1.00
C377   C     0.16846   0.83937   0.04584   0.00000  Uiso   1.00
C378   C     0.11741   0.81332   0.03426   0.00000  Uiso   1.00
C379   C     0.08066   0.79224   0.05858   0.00000  Uiso   1.00
C380   C     0.03513   0.76782   0.04633   0.00000  Uiso   1.00
C381   C     0.02469   0.76391   0.00935   0.00000  Uiso   1.00
C382   C     0.06182   0.78479  -0.01501   0.00000  Uiso   1.00
C383   C     0.10724   0.80849  -0.00280   0.00000  Uiso   1.00
C384   C     0.18939   0.81559   0.10659   0.00000  Uiso   1.00
C385   C     0.19049   0.81626   0.14420   0.00000  Uiso   1.00
C386   C     0.17688   0.84325   0.16394   0.00000  Uiso   1.00
C387   C     0.16339   0.87087   0.14442   0.00000  Uiso   1.00
C388   C     0.16090   0.86911   0.10690   0.00000  Uiso   1.00
C389   C     0.17314   0.84076   0.08723   0.00000  Uiso   1.00
C390   C     0.17602   0.84279   0.20549   0.00000  Uiso   1.00
C391   C     0.24692   0.98178   0.24662   0.00000  Uiso   1.00
C392   C     0.21066   0.94718   0.26610   0.00000  Uiso   1.00
C393   C     0.18751   0.90307   0.25289   0.00000  Uiso   1.00
C394   C     0.19974   0.89173   0.21981   0.00000  Uiso   1.00
C395   C     0.23632   0.92623   0.20045   0.00000  Uiso   1.00
C396   C     0.25924   0.97043   0.21343   0.00000  Uiso   1.00
C397   C     0.20260   0.81838   0.21892   0.00000  Uiso   1.00
C398   C     0.18005   0.77089   0.22101   0.00000  Uiso   1.00
C399   C     0.20360   0.74785   0.23173   0.00000  Uiso   1.00
C400   C     0.25117   0.77120   0.23980   0.00000  Uiso   1.00
C401   C     0.27383   0.81863   0.23696   0.00000  Uiso   1.00
C402   C     0.24994   0.84172   0.22694   0.00000  Uiso   1.00
C403   C     0.11597   0.79812   0.25384   0.00000  Uiso   1.00
C404   C     0.07086   0.77489   0.26695   0.00000  Uiso   1.00
C405   C     0.03324   0.77089   0.24628   0.00000  Uiso   1.00
C406   C     0.04306   0.79135   0.21209   0.00000  Uiso   1.00
C407   C     0.08812   0.81374   0.19878   0.00000  Uiso   1.00
C408   C     0.12561   0.81754   0.21920   0.00000  Uiso   1.00
H409   H     0.24263   0.86821  -0.00377   0.00000  Uiso   1.00
H410   H     0.14193   0.74983   0.05282   0.00000  Uiso   1.00
H411   H     0.17981   0.70709   0.03130   0.00000  Uiso   1.00
H412   H     0.27831   0.82500  -0.02742   0.00000  Uiso   1.00
H413   H     0.08716   0.79442   0.08753   0.00000  Uiso   1.00
H414   H     1.00752   0.75114   0.06609   0.00000  Uiso   1.00
H415   H     0.05535   0.78300   0.95603   0.00000  Uiso   1.00
H416   H     0.13534   0.82360  -0.02238   0.00000  Uiso   1.00
H417   H     0.20151   0.79467   0.09283   0.00000  Uiso   1.00
H418   H     0.20252   0.79511   0.15779   0.00000  Uiso   1.00
H419   H     0.15488   0.89431   0.15859   0.00000  Uiso   1.00
H420   H     0.14931   0.89030   0.09272   0.00000  Uiso   1.00
H421   H     0.20061   0.95446   0.29227   0.00000  Uiso   1.00
H422   H     0.15954   0.87740   0.26898   0.00000  Uiso   1.00
H423   H     0.24710   0.91871   0.17470   0.00000  Uiso   1.00
H424   H     0.28681   0.99641   0.19719   0.00000  Uiso   1.00
H425   H     0.14342   0.75140   0.21422   0.00000  Uiso   1.00
H426   H     0.18427   0.71108   0.23396   0.00000  Uiso   1.00
H427   H     0.31088   0.83823   0.24220   0.00000  Uiso   1.00
H428   H     0.26903   0.87855   0.22522   0.00000  Uiso   1.00
H429   H     0.14404   0.80029   0.27082   0.00000  Uiso   1.00
H430   H     0.06508   0.75922   0.29353   0.00000  Uiso   1.00
H431   H     0.01532   0.79026   0.19532   0.00000  Uiso   1.00
H432   H     0.09325   0.82802   0.17175   0.00000  Uiso   1.00
C433   C     0.77150   0.52884   0.26034   0.00000  Uiso   1.00
C434   C     0.81855   0.55691   0.25263   0.00000  Uiso   1.00
C435   C     0.84146   0.60186   0.26399   0.00000  Uiso   1.00
C436   C     0.81815   0.62041   0.28343   0.00000  Uiso   1.00
C437   C     0.77166   0.59173   0.29274   0.00000  Uiso   1.00
C438   C     0.74861   0.54691   0.28121   0.00000  Uiso   1.00
H439   H     0.83794   0.54355   0.23776   0.00000  Uiso   1.00
H440   H     0.87803   0.62227   0.25743   0.00000  Uiso   1.00
H441   H     0.75316   0.60478   0.30914   0.00000  Uiso   1.00
H442   H     0.71217   0.52607   0.28811   0.00000  Uiso   1.00
C443   C     0.77951   0.67571   0.25584   0.00000  Uiso   1.00
C444   C     0.81820   0.69586   0.27847   0.00000  Uiso   1.00
C445   C     0.83741   0.74255   0.28511   0.00000  Uiso   1.00
C446   C     0.81630   0.76709   0.27237   0.00000  Uiso   1.00
C447   C     0.77573   0.74623   0.25143   0.00000  Uiso   1.00
C448   C     0.75884   0.70044   0.24245   0.00000  Uiso   1.00
C449   C     0.84116   0.67001   0.29591   0.00000  Uiso   1.00
C450   C     0.89223   0.69605   0.28441   0.00000  Uiso   1.00
C451   C     0.92911   0.71557   0.30878   0.00000  Uiso   1.00
C452   C     0.97465   0.74009   0.29657   0.00000  Uiso   1.00
C453   C     0.98498   0.74552   0.25957   0.00000  Uiso   1.00
C454   C     0.94773   0.72599   0.23517   0.00000  Uiso   1.00
C455   C     0.90232   0.70230   0.24738   0.00000  Uiso   1.00
C456   C     0.82159   0.69504   0.35652   0.00000  Uiso   1.00
C457   C     0.82032   0.69433   0.39413   0.00000  Uiso   1.00
C458   C     0.83266   0.66641   0.41397   0.00000  Uiso   1.00
C459   C     0.84530   0.63812   0.39460   0.00000  Uiso   1.00
C460   C     0.84774   0.63972   0.35708   0.00000  Uiso   1.00
C461   C     0.83653   0.66878   0.33729   0.00000  Uiso   1.00
C462   C     0.83348   0.66686   0.45553   0.00000  Uiso   1.00
C463   C     0.76270   0.52783   0.49685   0.00000  Uiso   1.00
C464   C     0.79959   0.56223   0.51596   0.00000  Uiso   1.00
C465   C     0.82269   0.60636   0.50269   0.00000  Uiso   1.00
C466   C     0.80983   0.61790   0.46992   0.00000  Uiso   1.00
C467   C     0.77270   0.58354   0.45090   0.00000  Uiso   1.00
C468   C     0.74979   0.53935   0.46396   0.00000  Uiso   1.00
C469   C     0.80680   0.69121   0.46882   0.00000  Uiso   1.00
C470   C     0.82937   0.73867   0.47129   0.00000  Uiso   1.00
C471   C     0.80567   0.76162   0.48184   0.00000  Uiso   1.00
C472   C     0.75801   0.73816   0.48946   0.00000  Uiso   1.00
C473   C     0.73528   0.69080   0.48615   0.00000  Uiso   1.00
C474   C     0.75928   0.66782   0.47621   0.00000  Uiso   1.00
C475   C     0.89363   0.71108   0.50396   0.00000  Uiso   1.00
C476   C     0.93880   0.73416   0.51702   0.00000  Uiso   1.00
C477   C     0.97637   0.73868   0.49608   0.00000  Uiso   1.00
C478   C     0.96652   0.71889   0.46166   0.00000  Uiso   1.00
C479   C     0.92140   0.69652   0.44845   0.00000  Uiso   1.00
C480   C     0.88393   0.69218   0.46916   0.00000  Uiso   1.00
H481   H     0.76471   0.64020   0.24826   0.00000  Uiso   1.00
H482   H     0.86921   0.75999   0.30084   0.00000  Uiso   1.00
H483   H     0.83139   0.80279   0.27951   0.00000  Uiso   1.00
H484   H     0.72895   0.68333   0.22472   0.00000  Uiso   1.00
H485   H     0.92273   0.71217   0.33775   0.00000  Uiso   1.00
H486   H     1.00234   0.75556   0.31645   0.00000  Uiso   1.00
H487   H     0.95406   0.72889   0.20619   0.00000  Uiso   1.00
H488   H     0.87413   0.68832   0.22778   0.00000  Uiso   1.00
H489   H     0.81065   0.71686   0.34265   0.00000  Uiso   1.00
H490   H     0.80925   0.71625   0.40763   0.00000  Uiso   1.00
H491   H     0.85328   0.61435   0.40890   0.00000  Uiso   1.00
H492   H     0.85852   0.61787   0.34300   0.00000  Uiso   1.00
H493   H     0.81023   0.55482   0.54186   0.00000  Uiso   1.00
H494   H     0.85118   0.63185   0.51848   0.00000  Uiso   1.00
H495   H     0.76150   0.59114   0.42533   0.00000  Uiso   1.00
H496   H     0.72168   0.51343   0.44804   0.00000  Uiso   1.00
H497   H     0.86613   0.75823   0.46495   0.00000  Uiso   1.00
H498   H     0.82490   0.79837   0.48437   0.00000  Uiso   1.00
H499   H     0.69811   0.67126   0.49091   0.00000  Uiso   1.00
H500   H     0.74016   0.63103   0.47408   0.00000  Uiso   1.00
H501   H     0.86558   0.70855   0.52111   0.00000  Uiso   1.00
H502   H     0.94465   0.74933   0.54378   0.00000  Uiso   1.00
H503   H    -0.00570   0.72058   0.44469   0.00000  Uiso   1.00
H504   H     0.91616   0.68265   0.42129   0.00000  Uiso   1.00
C505   C     0.73810   0.98071   0.01053   0.00000  Uiso   1.00
C506   C     0.69067   0.95314   0.00393   0.00000  Uiso   1.00
C507   C     0.66778   0.90812   0.01523   0.00000  Uiso   1.00
C508   C     0.69152   0.88900   0.03339   0.00000  Uiso   1.00
C509   C     0.73846   0.91722   0.04168   0.00000  Uiso   1.00
C510   C     0.76146   0.96210   0.03024   0.00000  Uiso   1.00
H511   H     0.67095   0.96694   0.99005   0.00000  Uiso   1.00
H512   H     0.63087   0.88811   0.00965   0.00000  Uiso   1.00
H513   H     0.75735   0.90376   0.05718   0.00000  Uiso   1.00
H514   H     0.79823   0.98260   0.03623   0.00000  Uiso   1.00
C515   C     0.72872   0.83306   0.00466   0.00000  Uiso   1.00
C516   C     0.69122   0.81337   0.02845   0.00000  Uiso   1.00
C517   C     0.67291   0.76700   0.03615   0.00000  Uiso   1.00
C518   C     0.69394   0.74246   0.02332   0.00000  Uiso   1.00
C519   C     0.73342   0.76300   0.00120   0.00000  Uiso   1.00
C520   C     0.74933   0.80834  -0.00879   0.00000  Uiso   1.00
C521   C     0.66846   0.83937   0.04584   0.00000  Uiso   1.00
C522   C     0.61741   0.81332   0.03426   0.00000  Uiso   1.00
C523   C     0.58066   0.79224   0.05858   0.00000  Uiso   1.00
C524   C     0.53513   0.76782   0.04633   0.00000  Uiso   1.00
C525   C     0.52469   0.76391   0.00934   0.00000  Uiso   1.00
C526   C     0.56182   0.78479  -0.01501   0.00000  Uiso   1.00
C527   C     0.60724   0.80849  -0.00280   0.00000  Uiso   1.00
C528   C     0.68940   0.81559   0.10659   0.00000  Uiso   1.00
C529   C     0.69049   0.81626   0.14420   0.00000  Uiso   1.00
C530   C     0.67688   0.84325   0.16394   0.00000  Uiso   1.00
C531   C     0.66339   0.87087   0.14442   0.00000  Uiso   1.00
C532   C     0.66090   0.86911   0.10690   0.00000  Uiso   1.00
C533   C     0.67314   0.84076   0.08723   0.00000  Uiso   1.00
C534   C     0.67602   0.84279   0.20549   0.00000  Uiso   1.00
C535   C     0.74692   0.98178   0.24662   0.00000  Uiso   1.00
C536   C     0.71066   0.94718   0.26610   0.00000  Uiso   1.00
C537   C     0.68751   0.90307   0.25289   0.00000  Uiso   1.00
C538   C     0.69974   0.89173   0.21981   0.00000  Uiso   1.00
C539   C     0.73632   0.92623   0.20045   0.00000  Uiso   1.00
C540   C     0.75924   0.97043   0.21343   0.00000  Uiso   1.00
C541   C     0.70260   0.81838   0.21892   0.00000  Uiso   1.00
C542   C     0.68005   0.77089   0.22101   0.00000  Uiso   1.00
C543   C     0.70360   0.74785   0.23173   0.00000  Uiso   1.00
C544   C     0.75118   0.77120   0.23980   0.00000  Uiso   1.00
C545   C     0.77383   0.81863   0.23696   0.00000  Uiso   1.00
C546   C     0.74994   0.84172   0.22694   0.00000  Uiso   1.00
C547   C     0.61597   0.79812   0.25384   0.00000  Uiso   1.00
C548   C     0.57086   0.77489   0.26695   0.00000  Uiso   1.00
C549   C     0.53324   0.77089   0.24628   0.00000  Uiso   1.00
C550   C     0.54306   0.79135   0.21209   0.00000  Uiso   1.00
C551   C     0.58812   0.81374   0.19878   0.00000  Uiso   1.00
C552   C     0.62561   0.81754   0.21920   0.00000  Uiso   1.00
H553   H     0.74263   0.86821  -0.00377   0.00000  Uiso   1.00
H554   H     0.64193   0.74983   0.05282   0.00000  Uiso   1.00
H555   H     0.67981   0.70709   0.03130   0.00000  Uiso   1.00
H556   H     0.77831   0.82500  -0.02742   0.00000  Uiso   1.00
H557   H     0.58716   0.79442   0.08753   0.00000  Uiso   1.00
H558   H     0.50752   0.75114   0.06609   0.00000  Uiso   1.00
H559   H     0.55535   0.78300   0.95603   0.00000  Uiso   1.00
H560   H     0.63534   0.82360  -0.02238   0.00000  Uiso   1.00
H561   H     0.70151   0.79467   0.09283   0.00000  Uiso   1.00
H562   H     0.70252   0.79511   0.15779   0.00000  Uiso   1.00
H563   H     0.65489   0.89431   0.15859   0.00000  Uiso   1.00
H564   H     0.64931   0.89030   0.09272   0.00000  Uiso   1.00
H565   H     0.70061   0.95446   0.29227   0.00000  Uiso   1.00
H566   H     0.65954   0.87740   0.26898   0.00000  Uiso   1.00
H567   H     0.74710   0.91871   0.17470   0.00000  Uiso   1.00
H568   H     0.78681   0.99641   0.19719   0.00000  Uiso   1.00
H569   H     0.64342   0.75140   0.21422   0.00000  Uiso   1.00
H570   H     0.68427   0.71108   0.23396   0.00000  Uiso   1.00
H571   H     0.81088   0.83823   0.24220   0.00000  Uiso   1.00
H572   H     0.76903   0.87855   0.22522   0.00000  Uiso   1.00
H573   H     0.64404   0.80029   0.27082   0.00000  Uiso   1.00
H574   H     0.56508   0.75922   0.29353   0.00000  Uiso   1.00
H575   H     0.51532   0.79026   0.19532   0.00000  Uiso   1.00
H576   H     0.59325   0.82802   0.17175   0.00000  Uiso   1.00
C577   C     0.27150   0.02884   0.76034   0.00000  Uiso   1.00
C578   C     0.31855   0.05691   0.75263   0.00000  Uiso   1.00
C579   C     0.34146   0.10186   0.76399   0.00000  Uiso   1.00
C580   C     0.31815   0.12041   0.78343   0.00000  Uiso   1.00
C581   C     0.27166   0.09173   0.79274   0.00000  Uiso   1.00
C582   C     0.24861   0.04691   0.78121   0.00000  Uiso   1.00
H583   H     0.33794   0.04355   0.73776   0.00000  Uiso   1.00
H584   H     0.37803   0.12227   0.75743   0.00000  Uiso   1.00
H585   H     0.25315   0.10478   0.80914   0.00000  Uiso   1.00
H586   H     0.21217   0.02607   0.78811   0.00000  Uiso   1.00
C587   C     0.27951   0.17571   0.75584   0.00000  Uiso   1.00
C588   C     0.31821   0.19586   0.77847   0.00000  Uiso   1.00
C589   C     0.33741   0.24255   0.78511   0.00000  Uiso   1.00
C590   C     0.31630   0.26709   0.77237   0.00000  Uiso   1.00
C591   C     0.27573   0.24623   0.75143   0.00000  Uiso   1.00
C592   C     0.25884   0.20044   0.74245   0.00000  Uiso   1.00
C593   C     0.34116   0.17001   0.79591   0.00000  Uiso   1.00
C594   C     0.39223   0.19605   0.78441   0.00000  Uiso   1.00
C595   C     0.42911   0.21557   0.80878   0.00000  Uiso   1.00
C596   C     0.47465   0.24009   0.79657   0.00000  Uiso   1.00
C597   C     0.48498   0.24552   0.75957   0.00000  Uiso   1.00
C598   C     0.44773   0.22599   0.73517   0.00000  Uiso   1.00
C599   C     0.40232   0.20230   0.74738   0.00000  Uiso   1.00
C600   C     0.32159   0.19504   0.85652   0.00000  Uiso   1.00
C601   C     0.32032   0.19433   0.89413   0.00000  Uiso   1.00
C602   C     0.33266   0.16641   0.91397   0.00000  Uiso   1.00
C603   C     0.34530   0.13812   0.89460   0.00000  Uiso   1.00
C604   C     0.34774   0.13972   0.85708   0.00000  Uiso   1.00
C605   C     0.33653   0.16878   0.83729   0.00000  Uiso   1.00
C606   C     0.33348   0.16686   0.95553   0.00000  Uiso   1.00
C607   C     0.26270   0.02783   0.99685   0.00000  Uiso   1.00
C608   C     0.29959   0.06223   1.01596   0.00000  Uiso   1.00
C609   C     0.32269   0.10636   1.00269   0.00000  Uiso   1.00
C610   C     0.30983   0.11790   0.96992   0.00000  Uiso   1.00
C611   C     0.27270   0.08354   0.95090   0.00000  Uiso   1.00
C612   C     0.24979   0.03935   0.96396   0.00000  Uiso   1.00
C613   C     0.30680   0.19121   0.96882   0.00000  Uiso   1.00
C614   C     0.32937   0.23867   0.97129   0.00000  Uiso   1.00
C615   C     0.30567   0.26162   0.98184   0.00000  Uiso   1.00
C616   C     0.25800   0.23816   0.98946   0.00000  Uiso   1.00
C617   C     0.23528   0.19080   0.98615   0.00000  Uiso   1.00
C618   C     0.25928   0.16782   0.97621   0.00000  Uiso   1.00
C619   C     0.39363   0.21108   1.00396   0.00000  Uiso   1.00
C620   C     0.43880   0.23416   1.01702   0.00000  Uiso   1.00
C621   C     0.47637   0.23868   0.99608   0.00000  Uiso   1.00
C622   C     0.46652   0.21889   0.96166   0.00000  Uiso   1.00
C623   C     0.42140   0.19652   0.94845   0.00000  Uiso   1.00
C624   C     0.38393   0.19218   0.96916   0.00000  Uiso   1.00
H625   H     0.26471   0.14020   0.74826   0.00000  Uiso   1.00
H626   H     0.36921   0.25999   0.80084   0.00000  Uiso   1.00
H627   H     0.33139   0.30279   0.77951   0.00000  Uiso   1.00
H628   H     0.22895   0.18333   0.72472   0.00000  Uiso   1.00
H629   H     0.42273   0.21217   0.83775   0.00000  Uiso   1.00
H630   H     0.50234   0.25556   0.81645   0.00000  Uiso   1.00
H631   H     0.45406   0.22889   0.70619   0.00000  Uiso   1.00
H632   H     0.37413   0.18832   0.72778   0.00000  Uiso   1.00
H633   H     0.31065   0.21686   0.84265   0.00000  Uiso   1.00
H634   H     0.30925   0.21625   0.90763   0.00000  Uiso   1.00
H635   H     0.35328   0.11435   0.90890   0.00000  Uiso   1.00
H636   H     0.35852   0.11787   0.84300   0.00000  Uiso   1.00
H637   H     0.31023   0.05482   0.04186   0.00000  Uiso   1.00
H638   H     0.35118   0.13185   1.01848   0.00000  Uiso   1.00
H639   H     0.26150   0.09114   0.92533   0.00000  Uiso   1.00
H640   H     0.22168   1.01343   0.94804   0.00000  Uiso   1.00
H641   H     0.36613   0.25823   0.96495   0.00000  Uiso   1.00
H642   H     0.32490   0.29837   0.98437   0.00000  Uiso   1.00
H643   H     0.19810   0.17126   0.99091   0.00000  Uiso   1.00
H644   H     0.24016   0.13103   0.97408   0.00000  Uiso   1.00
H645   H     0.36558   0.20855   1.02111   0.00000  Uiso   1.00
H646   H     0.44465   0.24933   0.04378   0.00000  Uiso   1.00
H647   H     0.49430   0.22057   0.94469   0.00000  Uiso   1.00
H648   H     0.41616   0.18265   0.92129   0.00000  Uiso   1.00
C649   C     0.23810   0.48071   0.51053   0.00000  Uiso   1.00
C650   C     0.19067   0.45314   0.50393   0.00000  Uiso   1.00
C651   C     0.16778   0.40812   0.51523   0.00000  Uiso   1.00
C652   C     0.19152   0.38900   0.53339   0.00000  Uiso   1.00
C653   C     0.23846   0.41722   0.54168   0.00000  Uiso   1.00
C654   C     0.26146   0.46210   0.53024   0.00000  Uiso   1.00
H655   H     0.17095   0.46694   0.49005   0.00000  Uiso   1.00
H656   H     0.13087   0.38811   0.50965   0.00000  Uiso   1.00
H657   H     0.25735   0.40376   0.55718   0.00000  Uiso   1.00
H658   H     0.29823   0.48260   0.53623   0.00000  Uiso   1.00
C659   C     0.22872   0.33307   0.50466   0.00000  Uiso   1.00
C660   C     0.19122   0.31337   0.52845   0.00000  Uiso   1.00
C661   C     0.17291   0.26700   0.53615   0.00000  Uiso   1.00
C662   C     0.19394   0.24246   0.52332   0.00000  Uiso   1.00
C663   C     0.23342   0.26300   0.50121   0.00000  Uiso   1.00
C664   C     0.24932   0.30834   0.49121   0.00000  Uiso   1.00
C665   C     0.16846   0.33937   0.54584   0.00000  Uiso   1.00
C666   C     0.11741   0.31332   0.53426   0.00000  Uiso   1.00
C667   C     0.08066   0.29224   0.55858   0.00000  Uiso   1.00
C668   C     0.03513   0.26782   0.54633   0.00000  Uiso   1.00
C669   C     0.02469   0.26391   0.50935   0.00000  Uiso   1.00
C670   C     0.06182   0.28479   0.48499   0.00000  Uiso   1.00
C671   C     0.10724   0.30849   0.49721   0.00000  Uiso   1.00
C672   C     0.18939   0.31559   0.60659   0.00000  Uiso   1.00
C673   C     0.19049   0.31626   0.64420   0.00000  Uiso   1.00
C674   C     0.17688   0.34325   0.66394   0.00000  Uiso   1.00
C675   C     0.16339   0.37087   0.64442   0.00000  Uiso   1.00
C676   C     0.16090   0.36911   0.60690   0.00000  Uiso   1.00
C677   C     0.17314   0.34076   0.58723   0.00000  Uiso   1.00
C678   C     0.17602   0.34279   0.70549   0.00000  Uiso   1.00
C679   C     0.24692   0.48178   0.74662   0.00000  Uiso   1.00
C680   C     0.21066   0.44718   0.76610   0.00000  Uiso   1.00
C681   C     0.18751   0.40307   0.75289   0.00000  Uiso   1.00
C682   C     0.19974   0.39173   0.71981   0.00000  Uiso   1.00
C683   C     0.23632   0.42623   0.70045   0.00000  Uiso   1.00
C684   C     0.25924   0.47043   0.71343   0.00000  Uiso   1.00
C685   C     0.20260   0.31838   0.71892   0.00000  Uiso   1.00
C686   C     0.18005   0.27089   0.72101   0.00000  Uiso   1.00
C687   C     0.20360   0.24785   0.73173   0.00000  Uiso   1.00
C688   C     0.25117   0.27120   0.73980   0.00000  Uiso   1.00
C689   C     0.27383   0.31863   0.73696   0.00000  Uiso   1.00
C690   C     0.24994   0.34172   0.72694   0.00000  Uiso   1.00
C691   C     0.11597   0.29812   0.75384   0.00000  Uiso   1.00
C692   C     0.07086   0.27489   0.76695   0.00000  Uiso   1.00
C693   C     0.03324   0.27089   0.74628   0.00000  Uiso   1.00
C694   C     0.04306   0.29135   0.71209   0.00000  Uiso   1.00
C695   C     0.08812   0.31374   0.69878   0.00000  Uiso   1.00
C696   C     0.12561   0.31754   0.71920   0.00000  Uiso   1.00
H697   H     0.24263   0.36821   0.49623   0.00000  Uiso   1.00
H698   H     0.14193   0.24983   0.55282   0.00000  Uiso   1.00
H699   H     0.17981   0.20709   0.53130   0.00000  Uiso   1.00
H700   H     0.27831   0.32500   0.47258   0.00000  Uiso   1.00
H701   H     0.08716   0.29442   0.58753   0.00000  Uiso   1.00
H702   H     1.00752   0.25114   0.56609   0.00000  Uiso   1.00
H703   H     0.05535   0.28300   0.45603   0.00000  Uiso   1.00
H704   H     0.13534   0.32360   0.47763   0.00000  Uiso   1.00
H705   H     0.20151   0.29467   0.59283   0.00000  Uiso   1.00
H706   H     0.20252   0.29511   0.65779   0.00000  Uiso   1.00
H707   H     0.15488   0.39431   0.65859   0.00000  Uiso   1.00
H708   H     0.14931   0.39030   0.59272   0.00000  Uiso   1.00
H709   H     0.20061   0.45446   0.79227   0.00000  Uiso   1.00
H710   H     0.15954   0.37740   0.76898   0.00000  Uiso   1.00
H711   H     0.24710   0.41871   0.67470   0.00000  Uiso   1.00
H712   H     0.28681   0.49641   0.69719   0.00000  Uiso   1.00
H713   H     0.14342   0.25140   0.71422   0.00000  Uiso   1.00
H714   H     0.18427   0.21108   0.73396   0.00000  Uiso   1.00
H715   H     0.31088   0.33823   0.74220   0.00000  Uiso   1.00
H716   H     0.26903   0.37855   0.72522   0.00000  Uiso   1.00
H717   H     0.14404   0.30029   0.77082   0.00000  Uiso   1.00
H718   H     0.06508   0.25922   0.79353   0.00000  Uiso   1.00
H719   H     0.01532   0.29026   0.69532   0.00000  Uiso   1.00
H720   H     0.09325   0.32802   0.67175   0.00000  Uiso   1.00
C721   C     0.77150   0.02884   0.76034   0.00000  Uiso   1.00
C722   C     0.81855   0.05691   0.75263   0.00000  Uiso   1.00
C723   C     0.84146   0.10186   0.76399   0.00000  Uiso   1.00
C724   C     0.81815   0.12041   0.78343   0.00000  Uiso   1.00
C725   C     0.77166   0.09173   0.79274   0.00000  Uiso   1.00
C726   C     0.74861   0.04691   0.78121   0.00000  Uiso   1.00
H727   H     0.83794   0.04355   0.73776   0.00000  Uiso   1.00
H728   H     0.87803   0.12227   0.75743   0.00000  Uiso   1.00
H729   H     0.75316   0.10478   0.80914   0.00000  Uiso   1.00
H730   H     0.71217   0.02607   0.78811   0.00000  Uiso   1.00
C731   C     0.77951   0.17571   0.75584   0.00000  Uiso   1.00
C732   C     0.81820   0.19586   0.77847   0.00000  Uiso   1.00
C733   C     0.83741   0.24255   0.78511   0.00000  Uiso   1.00
C734   C     0.81630   0.26709   0.77237   0.00000  Uiso   1.00
C735   C     0.77573   0.24623   0.75143   0.00000  Uiso   1.00
C736   C     0.75884   0.20044   0.74245   0.00000  Uiso   1.00
C737   C     0.84116   0.17001   0.79591   0.00000  Uiso   1.00
C738   C     0.89223   0.19605   0.78441   0.00000  Uiso   1.00
C739   C     0.92911   0.21557   0.80878   0.00000  Uiso   1.00
C740   C     0.97465   0.24009   0.79657   0.00000  Uiso   1.00
C741   C     0.98498   0.24552   0.75957   0.00000  Uiso   1.00
C742   C     0.94773   0.22599   0.73517   0.00000  Uiso   1.00
C743   C     0.90232   0.20230   0.74738   0.00000  Uiso   1.00
C744   C     0.82159   0.19504   0.85652   0.00000  Uiso   1.00
C745   C     0.82032   0.19433   0.89413   0.00000  Uiso   1.00
C746   C     0.83266   0.16641   0.91397   0.00000  Uiso   1.00
C747   C     0.84530   0.13812   0.89460   0.00000  Uiso   1.00
C748   C     0.84774   0.13972   0.85708   0.00000  Uiso   1.00
C749   C     0.83653   0.16878   0.83729   0.00000  Uiso   1.00
C750   C     0.83348   0.16686   0.95553   0.00000  Uiso   1.00
C751   C     0.76270   0.02782   0.99685   0.00000  Uiso   1.00
C752   C     0.79959   0.06223   1.01596   0.00000  Uiso   1.00
C753   C     0.82269   0.10636   1.00269   0.00000  Uiso   1.00
C754   C     0.80983   0.11790   0.96992   0.00000  Uiso   1.00
C755   C     0.77270   0.08354   0.95090   0.00000  Uiso   1.00
C756   C     0.74979   0.03935   0.96396   0.00000  Uiso   1.00
C757   C     0.80680   0.19121   0.96882   0.00000  Uiso   1.00
C758   C     0.82937   0.23867   0.97129   0.00000  Uiso   1.00
C759   C     0.80567   0.26162   0.98184   0.00000  Uiso   1.00
C760   C     0.75801   0.23816   0.98946   0.00000  Uiso   1.00
C761   C     0.73528   0.19080   0.98615   0.00000  Uiso   1.00
C762   C     0.75928   0.16782   0.97621   0.00000  Uiso   1.00
C763   C     0.89363   0.21108   1.00396   0.00000  Uiso   1.00
C764   C     0.93880   0.23416   1.01702   0.00000  Uiso   1.00
C765   C     0.97637   0.23868   0.99608   0.00000  Uiso   1.00
C766   C     0.96652   0.21889   0.96166   0.00000  Uiso   1.00
C767   C     0.92140   0.19652   0.94845   0.00000  Uiso   1.00
C768   C     0.88393   0.19218   0.96916   0.00000  Uiso   1.00
H769   H     0.76471   0.14020   0.74826   0.00000  Uiso   1.00
H770   H     0.86921   0.25999   0.80084   0.00000  Uiso   1.00
H771   H     0.83139   0.30279   0.77951   0.00000  Uiso   1.00
H772   H     0.72895   0.18333   0.72472   0.00000  Uiso   1.00
H773   H     0.92273   0.21217   0.83775   0.00000  Uiso   1.00
H774   H     1.00234   0.25556   0.81645   0.00000  Uiso   1.00
H775   H     0.95406   0.22889   0.70619   0.00000  Uiso   1.00
H776   H     0.87413   0.18832   0.72778   0.00000  Uiso   1.00
H777   H     0.81065   0.21686   0.84265   0.00000  Uiso   1.00
H778   H     0.80925   0.21625   0.90763   0.00000  Uiso   1.00
H779   H     0.85328   0.11435   0.90890   0.00000  Uiso   1.00
H780   H     0.85852   0.11787   0.84300   0.00000  Uiso   1.00
H781   H     0.81023   0.05482   0.04186   0.00000  Uiso   1.00
H782   H     0.85118   0.13185   1.01848   0.00000  Uiso   1.00
H783   H     0.76150   0.09114   0.92533   0.00000  Uiso   1.00
H784   H     0.72168   1.01343   0.94804   0.00000  Uiso   1.00
H785   H     0.86613   0.25823   0.96495   0.00000  Uiso   1.00
H786   H     0.82490   0.29837   0.98437   0.00000  Uiso   1.00
H787   H     0.69811   0.17126   0.99091   0.00000  Uiso   1.00
H788   H     0.74016   0.13103   0.97408   0.00000  Uiso   1.00
H789   H     0.86558   0.20855   1.02111   0.00000  Uiso   1.00
H790   H     0.94465   0.24933   0.04378   0.00000  Uiso   1.00
H791   H    -0.00570   0.22057   0.94469   0.00000  Uiso   1.00
H792   H     0.91616   0.18265   0.92129   0.00000  Uiso   1.00
C793   C     0.73810   0.48071   0.51053   0.00000  Uiso   1.00
C794   C     0.69067   0.45314   0.50393   0.00000  Uiso   1.00
C795   C     0.66778   0.40812   0.51523   0.00000  Uiso   1.00
C796   C     0.69152   0.38900   0.53339   0.00000  Uiso   1.00
C797   C     0.73846   0.41722   0.54168   0.00000  Uiso   1.00
C798   C     0.76146   0.46210   0.53024   0.00000  Uiso   1.00
H799   H     0.67095   0.46694   0.49005   0.00000  Uiso   1.00
H800   H     0.63087   0.38811   0.50965   0.00000  Uiso   1.00
H801   H     0.75735   0.40376   0.55718   0.00000  Uiso   1.00
H802   H     0.79823   0.48260   0.53623   0.00000  Uiso   1.00
C803   C     0.72872   0.33307   0.50466   0.00000  Uiso   1.00
C804   C     0.69122   0.31337   0.52845   0.00000  Uiso   1.00
C805   C     0.67291   0.26700   0.53615   0.00000  Uiso   1.00
C806   C     0.69394   0.24246   0.52332   0.00000  Uiso   1.00
C807   C     0.73342   0.26300   0.50121   0.00000  Uiso   1.00
C808   C     0.74933   0.30834   0.49121   0.00000  Uiso   1.00
C809   C     0.66846   0.33937   0.54584   0.00000  Uiso   1.00
C810   C     0.61741   0.31332   0.53426   0.00000  Uiso   1.00
C811   C     0.58066   0.29224   0.55858   0.00000  Uiso   1.00
C812   C     0.53513   0.26782   0.54633   0.00000  Uiso   1.00
C813   C     0.52469   0.26391   0.50935   0.00000  Uiso   1.00
C814   C     0.56182   0.28479   0.48499   0.00000  Uiso   1.00
C815   C     0.60724   0.30849   0.49721   0.00000  Uiso   1.00
C816   C     0.68940   0.31559   0.60659   0.00000  Uiso   1.00
C817   C     0.69049   0.31626   0.64420   0.00000  Uiso   1.00
C818   C     0.67688   0.34325   0.66394   0.00000  Uiso   1.00
C819   C     0.66339   0.37087   0.64442   0.00000  Uiso   1.00
C820   C     0.66090   0.36911   0.60690   0.00000  Uiso   1.00
C821   C     0.67314   0.34076   0.58723   0.00000  Uiso   1.00
C822   C     0.67602   0.34279   0.70549   0.00000  Uiso   1.00
C823   C     0.74692   0.48178   0.74662   0.00000  Uiso   1.00
C824   C     0.71066   0.44718   0.76610   0.00000  Uiso   1.00
C825   C     0.68751   0.40307   0.75289   0.00000  Uiso   1.00
C826   C     0.69974   0.39173   0.71981   0.00000  Uiso   1.00
C827   C     0.73632   0.42623   0.70045   0.00000  Uiso   1.00
C828   C     0.75924   0.47043   0.71343   0.00000  Uiso   1.00
C829   C     0.70260   0.31838   0.71892   0.00000  Uiso   1.00
C830   C     0.68005   0.27089   0.72101   0.00000  Uiso   1.00
C831   C     0.70360   0.24785   0.73173   0.00000  Uiso   1.00
C832   C     0.75118   0.27120   0.73980   0.00000  Uiso   1.00
C833   C     0.77383   0.31863   0.73696   0.00000  Uiso   1.00
C834   C     0.74994   0.34172   0.72694   0.00000  Uiso   1.00
C835   C     0.61597   0.29812   0.75384   0.00000  Uiso   1.00
C836   C     0.57086   0.27489   0.76695   0.00000  Uiso   1.00
C837   C     0.53324   0.27089   0.74628   0.00000  Uiso   1.00
C838   C     0.54306   0.29135   0.71209   0.00000  Uiso   1.00
C839   C     0.58812   0.31374   0.69878   0.00000  Uiso   1.00
C840   C     0.62561   0.31754   0.71920   0.00000  Uiso   1.00
H841   H     0.74263   0.36821   0.49623   0.00000  Uiso   1.00
H842   H     0.64193   0.24983   0.55282   0.00000  Uiso   1.00
H843   H     0.67981   0.20709   0.53130   0.00000  Uiso   1.00
H844   H     0.77831   0.32500   0.47258   0.00000  Uiso   1.00
H845   H     0.58716   0.29442   0.58753   0.00000  Uiso   1.00
H846   H     0.50752   0.25114   0.56609   0.00000  Uiso   1.00
H847   H     0.55535   0.28300   0.45603   0.00000  Uiso   1.00
H848   H     0.63534   0.32360   0.47763   0.00000  Uiso   1.00
H849   H     0.70151   0.29467   0.59283   0.00000  Uiso   1.00
H850   H     0.70252   0.29511   0.65779   0.00000  Uiso   1.00
H851   H     0.65489   0.39431   0.65859   0.00000  Uiso   1.00
H852   H     0.64931   0.39030   0.59272   0.00000  Uiso   1.00
H853   H     0.70061   0.45446   0.79227   0.00000  Uiso   1.00
H854   H     0.65954   0.37740   0.76898   0.00000  Uiso   1.00
H855   H     0.74710   0.41871   0.67470   0.00000  Uiso   1.00
H856   H     0.78681   0.49641   0.69719   0.00000  Uiso   1.00
H857   H     0.64342   0.25140   0.71422   0.00000  Uiso   1.00
H858   H     0.68427   0.21108   0.73396   0.00000  Uiso   1.00
H859   H     0.81088   0.33823   0.74220   0.00000  Uiso   1.00
H860   H     0.76903   0.37855   0.72522   0.00000  Uiso   1.00
H861   H     0.64404   0.30029   0.77082   0.00000  Uiso   1.00
H862   H     0.56508   0.25922   0.79353   0.00000  Uiso   1.00
H863   H     0.51532   0.29026   0.69532   0.00000  Uiso   1.00
H864   H     0.59325   0.32802   0.67175   0.00000  Uiso   1.00
C865   C     0.27150   0.52884   0.76034   0.00000  Uiso   1.00
C866   C     0.31855   0.55691   0.75263   0.00000  Uiso   1.00
C867   C     0.34146   0.60186   0.76399   0.00000  Uiso   1.00
C868   C     0.31815   0.62041   0.78343   0.00000  Uiso   1.00
C869   C     0.27166   0.59173   0.79274   0.00000  Uiso   1.00
C870   C     0.24861   0.54691   0.78121   0.00000  Uiso   1.00
H871   H     0.33794   0.54355   0.73776   0.00000  Uiso   1.00
H872   H     0.37803   0.62227   0.75743   0.00000  Uiso   1.00
H873   H     0.25315   0.60478   0.80914   0.00000  Uiso   1.00
H874   H     0.21217   0.52607   0.78811   0.00000  Uiso   1.00
C875   C     0.27951   0.67571   0.75584   0.00000  Uiso   1.00
C876   C     0.31821   0.69586   0.77847   0.00000  Uiso   1.00
C877   C     0.33741   0.74255   0.78511   0.00000  Uiso   1.00
C878   C     0.31630   0.76709   0.77237   0.00000  Uiso   1.00
C879   C     0.27573   0.74623   0.75143   0.00000  Uiso   1.00
C880   C     0.25884   0.70044   0.74245   0.00000  Uiso   1.00
C881   C     0.34116   0.67001   0.79591   0.00000  Uiso   1.00
C882   C     0.39223   0.69605   0.78441   0.00000  Uiso   1.00
C883   C     0.42911   0.71557   0.80878   0.00000  Uiso   1.00
C884   C     0.47465   0.74009   0.79657   0.00000  Uiso   1.00
C885   C     0.48498   0.74552   0.75957   0.00000  Uiso   1.00
C886   C     0.44773   0.72599   0.73517   0.00000  Uiso   1.00
C887   C     0.40232   0.70230   0.74738   0.00000  Uiso   1.00
C888   C     0.32159   0.69504   0.85652   0.00000  Uiso   1.00
C889   C     0.32032   0.69433   0.89413   0.00000  Uiso   1.00
C890   C     0.33266   0.66641   0.91397   0.00000  Uiso   1.00
C891   C     0.34530   0.63812   0.89460   0.00000  Uiso   1.00
C892   C     0.34774   0.63972   0.85708   0.00000  Uiso   1.00
C893   C     0.33653   0.66878   0.83729   0.00000  Uiso   1.00
C894   C     0.33348   0.66686   0.95553   0.00000  Uiso   1.00
C895   C     0.26270   0.52783   0.99685   0.00000  Uiso   1.00
C896   C     0.29959   0.56223   1.01596   0.00000  Uiso   1.00
C897   C     0.32269   0.60636   1.00269   0.00000  Uiso   1.00
C898   C     0.30983   0.61790   0.96992   0.00000  Uiso   1.00
C899   C     0.27270   0.58354   0.95090   0.00000  Uiso   1.00
C900   C     0.24979   0.53935   0.96396   0.00000  Uiso   1.00
C901   C     0.30680   0.69121   0.96882   0.00000  Uiso   1.00
C902   C     0.32937   0.73867   0.97129   0.00000  Uiso   1.00
C903   C     0.30567   0.76162   0.98184   0.00000  Uiso   1.00
C904   C     0.25800   0.73816   0.98946   0.00000  Uiso   1.00
C905   C     0.23528   0.69080   0.98615   0.00000  Uiso   1.00
C906   C     0.25928   0.66782   0.97621   0.00000  Uiso   1.00
C907   C     0.39363   0.71108   1.00396   0.00000  Uiso   1.00
C908   C     0.43880   0.73416   1.01702   0.00000  Uiso   1.00
C909   C     0.47637   0.73868   0.99608   0.00000  Uiso   1.00
C910   C     0.46652   0.71889   0.96166   0.00000  Uiso   1.00
C911   C     0.42140   0.69652   0.94845   0.00000  Uiso   1.00
C912   C     0.38393   0.69218   0.96916   0.00000  Uiso   1.00
H913   H     0.26471   0.64020   0.74826   0.00000  Uiso   1.00
H914   H     0.36921   0.75999   0.80084   0.00000  Uiso   1.00
H915   H     0.33139   0.80279   0.77951   0.00000  Uiso   1.00
H916   H     0.22895   0.68333   0.72472   0.00000  Uiso   1.00
H917   H     0.42273   0.71217   0.83775   0.00000  Uiso   1.00
H918   H     0.50234   0.75556   0.81645   0.00000  Uiso   1.00
H919   H     0.45406   0.72889   0.70619   0.00000  Uiso   1.00
H920   H     0.37413   0.68832   0.72778   0.00000  Uiso   1.00
H921   H     0.31065   0.71686   0.84265   0.00000  Uiso   1.00
H922   H     0.30925   0.71625   0.90763   0.00000  Uiso   1.00
H923   H     0.35328   0.61435   0.90890   0.00000  Uiso   1.00
H924   H     0.35852   0.61787   0.84300   0.00000  Uiso   1.00
H925   H     0.31023   0.55482   0.04186   0.00000  Uiso   1.00
H926   H     0.35118   0.63185   1.01848   0.00000  Uiso   1.00
H927   H     0.26150   0.59114   0.92533   0.00000  Uiso   1.00
H928   H     0.22168   0.51343   0.94804   0.00000  Uiso   1.00
H929   H     0.36613   0.75823   0.96495   0.00000  Uiso   1.00
H930   H     0.32490   0.79837   0.98437   0.00000  Uiso   1.00
H931   H     0.19810   0.67126   0.99091   0.00000  Uiso   1.00
H932   H     0.24016   0.63103   0.97408   0.00000  Uiso   1.00
H933   H     0.36558   0.70855   1.02111   0.00000  Uiso   1.00
H934   H     0.44465   0.74933   0.04378   0.00000  Uiso   1.00
H935   H     0.49430   0.72058   0.94469   0.00000  Uiso   1.00
H936   H     0.41616   0.68265   0.92129   0.00000  Uiso   1.00
C937   C     0.23810   0.98071   0.51053   0.00000  Uiso   1.00
C938   C     0.19067   0.95314   0.50393   0.00000  Uiso   1.00
C939   C     0.16778   0.90812   0.51523   0.00000  Uiso   1.00
C940   C     0.19152   0.88900   0.53339   0.00000  Uiso   1.00
C941   C     0.23846   0.91722   0.54168   0.00000  Uiso   1.00
C942   C     0.26146   0.96210   0.53024   0.00000  Uiso   1.00
H943   H     0.17095   0.96694   0.49005   0.00000  Uiso   1.00
H944   H     0.13087   0.88811   0.50965   0.00000  Uiso   1.00
H945   H     0.25735   0.90376   0.55718   0.00000  Uiso   1.00
H946   H     0.29823   0.98260   0.53623   0.00000  Uiso   1.00
C947   C     0.22872   0.83306   0.50466   0.00000  Uiso   1.00
C948   C     0.19122   0.81337   0.52845   0.00000  Uiso   1.00
C949   C     0.17291   0.76700   0.53615   0.00000  Uiso   1.00
C950   C     0.19394   0.74246   0.52332   0.00000  Uiso   1.00
C951   C     0.23342   0.76300   0.50121   0.00000  Uiso   1.00
C952   C     0.24932   0.80834   0.49121   0.00000  Uiso   1.00
C953   C     0.16846   0.83937   0.54584   0.00000  Uiso   1.00
C954   C     0.11741   0.81332   0.53426   0.00000  Uiso   1.00
C955   C     0.08066   0.79224   0.55858   0.00000  Uiso   1.00
C956   C     0.03513   0.76782   0.54633   0.00000  Uiso   1.00
C957   C     0.02469   0.76391   0.50935   0.00000  Uiso   1.00
C958   C     0.06182   0.78479   0.48499   0.00000  Uiso   1.00
C959   C     0.10724   0.80849   0.49721   0.00000  Uiso   1.00
C960   C     0.18939   0.81559   0.60659   0.00000  Uiso   1.00
C961   C     0.19049   0.81626   0.64420   0.00000  Uiso   1.00
C962   C     0.17688   0.84325   0.66394   0.00000  Uiso   1.00
C963   C     0.16339   0.87087   0.64442   0.00000  Uiso   1.00
C964   C     0.16090   0.86911   0.60690   0.00000  Uiso   1.00
C965   C     0.17314   0.84076   0.58723   0.00000  Uiso   1.00
C966   C     0.17602   0.84279   0.70549   0.00000  Uiso   1.00
C967   C     0.24692   0.98178   0.74662   0.00000  Uiso   1.00
C968   C     0.21066   0.94718   0.76610   0.00000  Uiso   1.00
C969   C     0.18751   0.90307   0.75289   0.00000  Uiso   1.00
C970   C     0.19974   0.89173   0.71981   0.00000  Uiso   1.00
C971   C     0.23632   0.92623   0.70045   0.00000  Uiso   1.00
C972   C     0.25924   0.97043   0.71343   0.00000  Uiso   1.00
C973   C     0.20260   0.81838   0.71892   0.00000  Uiso   1.00
C974   C     0.18005   0.77089   0.72101   0.00000  Uiso   1.00
C975   C     0.20360   0.74785   0.73173   0.00000  Uiso   1.00
C976   C     0.25117   0.77120   0.73980   0.00000  Uiso   1.00
C977   C     0.27383   0.81863   0.73696   0.00000  Uiso   1.00
C978   C     0.24994   0.84172   0.72694   0.00000  Uiso   1.00
C979   C     0.11597   0.79812   0.75384   0.00000  Uiso   1.00
C980   C     0.07086   0.77489   0.76695   0.00000  Uiso   1.00
C981   C     0.03324   0.77089   0.74628   0.00000  Uiso   1.00
C982   C     0.04306   0.79135   0.71209   0.00000  Uiso   1.00
C983   C     0.08812   0.81374   0.69878   0.00000  Uiso   1.00
C984   C     0.12561   0.81754   0.71920   0.00000  Uiso   1.00
H985   H     0.24263   0.86821   0.49623   0.00000  Uiso   1.00
H986   H     0.14193   0.74983   0.55282   0.00000  Uiso   1.00
H987   H     0.17981   0.70709   0.53130   0.00000  Uiso   1.00
H988   H     0.27831   0.82500   0.47258   0.00000  Uiso   1.00
H989   H     0.08716   0.79442   0.58753   0.00000  Uiso   1.00
H990   H     1.00752   0.75114   0.56609   0.00000  Uiso   1.00
H991   H     0.05535   0.78300   0.45603   0.00000  Uiso   1.00
H992   H     0.13534   0.82360   0.47763   0.00000  Uiso   1.00
H993   H     0.20151   0.79467   0.59283   0.00000  Uiso   1.00
H994   H     0.20252   0.79511   0.65779   0.00000  Uiso   1.00
H995   H     0.15488   0.89431   0.65859   0.00000  Uiso   1.00
H996   H     0.14931   0.89030   0.59272   0.00000  Uiso   1.00
H997   H     0.20061   0.95446   0.79227   0.00000  Uiso   1.00
H998   H     0.15954   0.87740   0.76898   0.00000  Uiso   1.00
H999   H     0.24710   0.91871   0.67470   0.00000  Uiso   1.00
H1000  H     0.28681   0.99641   0.69719   0.00000  Uiso   1.00
H1001  H     0.14342   0.75140   0.71422   0.00000  Uiso   1.00
H1002  H     0.18427   0.71108   0.73396   0.00000  Uiso   1.00
H1003  H     0.31088   0.83823   0.74220   0.00000  Uiso   1.00
H1004  H     0.26903   0.87855   0.72522   0.00000  Uiso   1.00
H1005  H     0.14404   0.80029   0.77082   0.00000  Uiso   1.00
H1006  H     0.06508   0.75922   0.79353   0.00000  Uiso   1.00
H1007  H     0.01532   0.79026   0.69532   0.00000  Uiso   1.00
H1008  H     0.09325   0.82802   0.67175   0.00000  Uiso   1.00
C1009  C     0.77150   0.52884   0.76034   0.00000  Uiso   1.00
C1010  C     0.81855   0.55691   0.75263   0.00000  Uiso   1.00
C1011  C     0.84146   0.60186   0.76399   0.00000  Uiso   1.00
C1012  C     0.81815   0.62041   0.78343   0.00000  Uiso   1.00
C1013  C     0.77166   0.59173   0.79274   0.00000  Uiso   1.00
C1014  C     0.74861   0.54691   0.78121   0.00000  Uiso   1.00
H1015  H     0.83794   0.54355   0.73776   0.00000  Uiso   1.00
H1016  H     0.87803   0.62227   0.75743   0.00000  Uiso   1.00
H1017  H     0.75316   0.60478   0.80914   0.00000  Uiso   1.00
H1018  H     0.71217   0.52607   0.78811   0.00000  Uiso   1.00
C1019  C     0.77951   0.67571   0.75584   0.00000  Uiso   1.00
C1020  C     0.81820   0.69586   0.77847   0.00000  Uiso   1.00
C1021  C     0.83741   0.74255   0.78511   0.00000  Uiso   1.00
C1022  C     0.81630   0.76709   0.77237   0.00000  Uiso   1.00
C1023  C     0.77573   0.74623   0.75143   0.00000  Uiso   1.00
C1024  C     0.75884   0.70044   0.74245   0.00000  Uiso   1.00
C1025  C     0.84116   0.67001   0.79591   0.00000  Uiso   1.00
C1026  C     0.89223   0.69605   0.78441   0.00000  Uiso   1.00
C1027  C     0.92911   0.71557   0.80878   0.00000  Uiso   1.00
C1028  C     0.97465   0.74009   0.79657   0.00000  Uiso   1.00
C1029  C     0.98498   0.74552   0.75957   0.00000  Uiso   1.00
C1030  C     0.94773   0.72599   0.73517   0.00000  Uiso   1.00
C1031  C     0.90232   0.70230   0.74738   0.00000  Uiso   1.00
C1032  C     0.82159   0.69504   0.85652   0.00000  Uiso   1.00
C1033  C     0.82032   0.69433   0.89413   0.00000  Uiso   1.00
C1034  C     0.83266   0.66641   0.91397   0.00000  Uiso   1.00
C1035  C     0.84530   0.63812   0.89460   0.00000  Uiso   1.00
C1036  C     0.84774   0.63972   0.85708   0.00000  Uiso   1.00
C1037  C     0.83653   0.66878   0.83729   0.00000  Uiso   1.00
C1038  C     0.83348   0.66686   0.95553   0.00000  Uiso   1.00
C1039  C     0.76270   0.52783   0.99685   0.00000  Uiso   1.00
C1040  C     0.79959   0.56223   1.01596   0.00000  Uiso   1.00
C1041  C     0.82269   0.60636   1.00269   0.00000  Uiso   1.00
C1042  C     0.80983   0.61790   0.96992   0.00000  Uiso   1.00
C1043  C     0.77270   0.58354   0.95090   0.00000  Uiso   1.00
C1044  C     0.74979   0.53935   0.96396   0.00000  Uiso   1.00
C1045  C     0.80680   0.69121   0.96882   0.00000  Uiso   1.00
C1046  C     0.82937   0.73867   0.97129   0.00000  Uiso   1.00
C1047  C     0.80567   0.76162   0.98184   0.00000  Uiso   1.00
C1048  C     0.75801   0.73816   0.98946   0.00000  Uiso   1.00
C1049  C     0.73528   0.69080   0.98615   0.00000  Uiso   1.00
C1050  C     0.75928   0.66782   0.97621   0.00000  Uiso   1.00
C1051  C     0.89363   0.71108   1.00396   0.00000  Uiso   1.00
C1052  C     0.93880   0.73416   1.01702   0.00000  Uiso   1.00
C1053  C     0.97637   0.73868   0.99608   0.00000  Uiso   1.00
C1054  C     0.96652   0.71889   0.96166   0.00000  Uiso   1.00
C1055  C     0.92140   0.69652   0.94845   0.00000  Uiso   1.00
C1056  C     0.88393   0.69218   0.96916   0.00000  Uiso   1.00
H1057  H     0.76471   0.64020   0.74826   0.00000  Uiso   1.00
H1058  H     0.86921   0.75999   0.80084   0.00000  Uiso   1.00
H1059  H     0.83139   0.80279   0.77951   0.00000  Uiso   1.00
H1060  H     0.72895   0.68333   0.72472   0.00000  Uiso   1.00
H1061  H     0.92273   0.71217   0.83775   0.00000  Uiso   1.00
H1062  H     1.00234   0.75556   0.81645   0.00000  Uiso   1.00
H1063  H     0.95406   0.72889   0.70619   0.00000  Uiso   1.00
H1064  H     0.87413   0.68832   0.72778   0.00000  Uiso   1.00
H1065  H     0.81065   0.71686   0.84265   0.00000  Uiso   1.00
H1066  H     0.80925   0.71625   0.90763   0.00000  Uiso   1.00
H1067  H     0.85328   0.61435   0.90890   0.00000  Uiso   1.00
H1068  H     0.85852   0.61787   0.84300   0.00000  Uiso   1.00
H1069  H     0.81023   0.55482   0.04186   0.00000  Uiso   1.00
H1070  H     0.85118   0.63185   1.01848   0.00000  Uiso   1.00
H1071  H     0.76150   0.59114   0.92533   0.00000  Uiso   1.00
H1072  H     0.72168   0.51343   0.94804   0.00000  Uiso   1.00
H1073  H     0.86613   0.75823   0.96495   0.00000  Uiso   1.00
H1074  H     0.82490   0.79837   0.98437   0.00000  Uiso   1.00
H1075  H     0.69811   0.67126   0.99091   0.00000  Uiso   1.00
H1076  H     0.74016   0.63103   0.97408   0.00000  Uiso   1.00
H1077  H     0.86558   0.70855   1.02111   0.00000  Uiso   1.00
H1078  H     0.94465   0.74933   0.04378   0.00000  Uiso   1.00
H1079  H    -0.00570   0.72058   0.94469   0.00000  Uiso   1.00
H1080  H     0.91616   0.68265   0.92129   0.00000  Uiso   1.00
C1081  C     0.73810   0.98071   0.51053   0.00000  Uiso   1.00
C1082  C     0.69067   0.95314   0.50393   0.00000  Uiso   1.00
C1083  C     0.66778   0.90812   0.51523   0.00000  Uiso   1.00
C1084  C     0.69152   0.88900   0.53339   0.00000  Uiso   1.00
C1085  C     0.73846   0.91722   0.54168   0.00000  Uiso   1.00
C1086  C     0.76146   0.96210   0.53024   0.00000  Uiso   1.00
H1087  H     0.67095   0.96694   0.49005   0.00000  Uiso   1.00
H1088  H     0.63087   0.88811   0.50965   0.00000  Uiso   1.00
H1089  H     0.75735   0.90376   0.55718   0.00000  Uiso   1.00
H1090  H     0.79823   0.98260   0.53623   0.00000  Uiso   1.00
C1091  C     0.72872   0.83306   0.50466   0.00000  Uiso   1.00
C1092  C     0.69122   0.81337   0.52845   0.00000  Uiso   1.00
C1093  C     0.67291   0.76700   0.53615   0.00000  Uiso   1.00
C1094  C     0.69394   0.74246   0.52332   0.00000  Uiso   1.00
C1095  C     0.73342   0.76300   0.50121   0.00000  Uiso   1.00
C1096  C     0.74933   0.80834   0.49121   0.00000  Uiso   1.00
C1097  C     0.66846   0.83937   0.54584   0.00000  Uiso   1.00
C1098  C     0.61741   0.81332   0.53426   0.00000  Uiso   1.00
C1099  C     0.58066   0.79224   0.55858   0.00000  Uiso   1.00
C1100  C     0.53513   0.76782   0.54633   0.00000  Uiso   1.00
C1101  C     0.52469   0.76391   0.50935   0.00000  Uiso   1.00
C1102  C     0.56182   0.78479   0.48499   0.00000  Uiso   1.00
C1103  C     0.60724   0.80849   0.49721   0.00000  Uiso   1.00
C1104  C     0.68940   0.81559   0.60659   0.00000  Uiso   1.00
C1105  C     0.69049   0.81626   0.64420   0.00000  Uiso   1.00
C1106  C     0.67688   0.84325   0.66394   0.00000  Uiso   1.00
C1107  C     0.66339   0.87087   0.64442   0.00000  Uiso   1.00
C1108  C     0.66090   0.86911   0.60690   0.00000  Uiso   1.00
C1109  C     0.67314   0.84076   0.58723   0.00000  Uiso   1.00
C1110  C     0.67602   0.84279   0.70549   0.00000  Uiso   1.00
C1111  C     0.74692   0.98178   0.74662   0.00000  Uiso   1.00
C1112  C     0.71066   0.94718   0.76610   0.00000  Uiso   1.00
C1113  C     0.68751   0.90307   0.75289   0.00000  Uiso   1.00
C1114  C     0.69974   0.89173   0.71981   0.00000  Uiso   1.00
C1115  C     0.73632   0.92623   0.70045   0.00000  Uiso   1.00
C1116  C     0.75924   0.97043   0.71343   0.00000  Uiso   1.00
C1117  C     0.70260   0.81838   0.71892   0.00000  Uiso   1.00
C1118  C     0.68005   0.77089   0.72101   0.00000  Uiso   1.00
C1119  C     0.70360   0.74785   0.73173   0.00000  Uiso   1.00
C1120  C     0.75118   0.77120   0.73980   0.00000  Uiso   1.00
C1121  C     0.77383   0.81863   0.73696   0.00000  Uiso   1.00
C1122  C     0.74994   0.84172   0.72694   0.00000  Uiso   1.00
C1123  C     0.61597   0.79812   0.75384   0.00000  Uiso   1.00
C1124  C     0.57086   0.77489   0.76695   0.00000  Uiso   1.00
C1125  C     0.53324   0.77089   0.74628   0.00000  Uiso   1.00
C1126  C     0.54306   0.79135   0.71209   0.00000  Uiso   1.00
C1127  C     0.58812   0.81374   0.69878   0.00000  Uiso   1.00
C1128  C     0.62561   0.81754   0.71920   0.00000  Uiso   1.00
H1129  H     0.74263   0.86821   0.49623   0.00000  Uiso   1.00
H1130  H     0.64193   0.74983   0.55282   0.00000  Uiso   1.00
H1131  H     0.67981   0.70709   0.53130   0.00000  Uiso   1.00
H1132  H     0.77831   0.82500   0.47258   0.00000  Uiso   1.00
H1133  H     0.58716   0.79442   0.58753   0.00000  Uiso   1.00
H1134  H     0.50752   0.75114   0.56609   0.00000  Uiso   1.00
H1135  H     0.55535   0.78300   0.45603   0.00000  Uiso   1.00
H1136  H     0.63534   0.82360   0.47763   0.00000  Uiso   1.00
H1137  H     0.70151   0.79467   0.59283   0.00000  Uiso   1.00
H1138  H     0.70252   0.79511   0.65779   0.00000  Uiso   1.00
H1139  H     0.65489   0.89431   0.65859   0.00000  Uiso   1.00
H1140  H     0.64931   0.89030   0.59272   0.00000  Uiso   1.00
H1141  H     0.70061   0.95446   0.79227   0.00000  Uiso   1.00
H1142  H     0.65954   0.87740   0.76898   0.00000  Uiso   1.00
H1143  H     0.74710   0.91871   0.67470   0.00000  Uiso   1.00
H1144  H     0.78681   0.99641   0.69719   0.00000  Uiso   1.00
H1145  H     0.64342   0.75140   0.71422   0.00000  Uiso   1.00
H1146  H     0.68427   0.71108   0.73396   0.00000  Uiso   1.00
H1147  H     0.81088   0.83823   0.74220   0.00000  Uiso   1.00
H1148  H     0.76903   0.87855   0.72522   0.00000  Uiso   1.00
H1149  H     0.64404   0.80029   0.77082   0.00000  Uiso   1.00
H1150  H     0.56508   0.75922   0.79353   0.00000  Uiso   1.00
H1151  H     0.51532   0.79026   0.69532   0.00000  Uiso   1.00
H1152  H     0.59325   0.82802   0.67175   0.00000  Uiso   1.00
loop_
_geom_bond_atom_site_label_1
_geom_bond_atom_site_label_2
_geom_bond_distance
_geom_bond_site_symmetry_2
_ccdc_geom_bond_type
C1     C2      1.395   .     A
C1     C6      1.398   .     A
C1     C391    1.473   1_545 S
C2     C3      1.386   .     A
C2     H7      1.084   .     S
C3     C4      1.391   .     A
C3     H8      1.083   .     S
C4     C5      1.398   .     A
C4     C17     1.528   .     S
C5     C6      1.384   .     A
C5     H9      1.085   .     S
C6     H10     1.084   .     S
C11    C12     1.391   .     A
C11    C16     1.386   .     A
C11    H49     1.083   .     S
C12    C13     1.398   .     A
C12    C17     1.532   .     S
C13    C14     1.384   .     A
C13    H50     1.085   .     S
C14    C15     1.399   .     A
C14    H51     1.084   .     S
C15    C16     1.397   .     A
C15    C112    1.473   .     S
C16    H52     1.084   .     S
C17    C18     1.528   .     S
C17    C29     1.532   .     S
C18    C19     1.391   .     A
C18    C23     1.397   .     A
C19    C20     1.387   .     A
C19    H53     1.084   .     S
C20    C21     1.397   .     A
C20    H54     1.084   .     S
C21    C22     1.399   .     A
C21    C261    1.473   .     S
C22    C23     1.382   .     A
C22    H55     1.084   .     S
C23    H56     1.085   .     S
C24    C25     1.387   .     A
C24    C29     1.389   .     A
C24    H57     1.083   .     S
C25    C26     1.390   .     A
C25    H58     1.083   .     S
C26    C27     1.398   .     A
C26    C30     1.532   .     S
C27    C28     1.385   .     A
C27    H59     1.085   .     S
C28    C29     1.397   .     A
C28    H60     1.085   .     S
C30    C34     1.532   .     S
C30    C37     1.533   .     S
C30    C48     1.534   .     S
C31    C32     1.395   .     A
C31    C36     1.397   .     A
C31    C937    1.473   1_545 S
C32    C33     1.386   .     A
C32    H61     1.085   .     S
C33    C34     1.393   .     A
C33    H62     1.083   .     S
C34    C35     1.397   .     A
C35    C36     1.385   .     A
C35    H63     1.085   .     S
C36    H64     1.085   1_545 S
C37    C38     1.397   .     A
C37    C42     1.392   .     A
C38    C39     1.383   .     A
C38    H65     1.084   .     S
C39    C40     1.398   .     A
C39    H66     1.084   .     S
C40    C41     1.397   .     A
C40    C663    1.472   .     S
C41    C42     1.386   .     A
C41    H67     1.084   .     S
C42    H68     1.084   .     S
C43    C44     1.385   .     A
C43    C48     1.398   .     A
C43    H69     1.085   .     S
C44    C45     1.398   .     A
C44    H70     1.084   .     S
C45    C46     1.396   .     A
C45    C813    1.474   .     S
C46    C47     1.385   .     A
C46    H71     1.083   .     S
C47    C48     1.392   .     A
C47    H72     1.083   .     S
H64    C36     1.085   1_565 S
C73    C74     1.395   .     A
C73    C78     1.398   .     A
C73    C895    1.473   1_554 S
C74    C75     1.386   .     A
C74    H79     1.085   1_554 S
C75    C76     1.391   .     A
C75    H80     1.083   .     S
C76    C77     1.398   .     A
C76    C89     1.528   .     S
C77    C78     1.384   .     A
C77    H81     1.085   .     S
C78    H82     1.084   .     S
H79    C74     1.085   1_556 S
C83    C84     1.391   .     A
C83    C88     1.386   .     A
C83    H121    1.083   .     S
C84    C85     1.398   .     A
C84    C89     1.532   .     S
C85    C86     1.384   .     A
C85    H122    1.085   .     S
C86    C87     1.398   .     A
C86    H123    1.084   .     S
C87    C88     1.397   .     A
C87    C616    1.472   1_554 S
C88    H124    1.084   .     S
C89    C90     1.528   .     S
C89    C101    1.532   .     S
C90    C91     1.391   .     A
C90    C95     1.397   .     A
C91    C92     1.387   .     A
C91    H125    1.084   .     S
C92    C93     1.396   .     A
C92    H126    1.084   1_455 S
C93    C94     1.399   .     A
C93    C765    1.474   1_454 S
C94    C95     1.382   .     A
C94    H127    1.084   1_554 S
C95    H128    1.085   .     S
C96    C97     1.387   .     A
C96    C101    1.389   .     A
C96    H129    1.083   .     S
C97    C98     1.390   .     A
C97    H130    1.083   .     S
C98    C99     1.398   .     A
C98    C102    1.532   .     S
C99    C100    1.385   .     A
C99    H131    1.085   .     S
C100   C101    1.397   .     A
C100   H132    1.085   .     S
C102   C106    1.532   .     S
C102   C109    1.532   .     S
C102   C120    1.535   .     S
C103   C104    1.395   .     A
C103   C108    1.397   .     A
C103   C289    1.473   .     S
C104   C105    1.385   .     A
C104   H133    1.084   .     S
C105   C106    1.393   .     A
C105   H134    1.083   .     S
C106   C107    1.396   .     A
C107   C108    1.384   .     A
C107   H135    1.084   .     S
C108   H136    1.084   .     S
C109   C110    1.397   .     A
C109   C114    1.392   .     A
C110   C111    1.383   .     A
C110   H137    1.084   .     S
C111   C112    1.398   .     A
C111   H138    1.084   .     S
C112   C113    1.397   .     A
C113   C114    1.386   .     A
C113   H139    1.084   .     S
C114   H140    1.084   .     S
C115   C116    1.385   .     A
C115   C120    1.398   .     A
C115   H141    1.084   .     S
C116   C117    1.398   .     A
C116   H142    1.084   .     S
C117   C118    1.396   .     A
C117   C165    1.473   1_455 S
C118   C119    1.385   .     A
C118   H143    1.084   .     S
C119   C120    1.391   .     A
C119   H144    1.082   .     S
H126   C92     1.084   1_655 S
H127   C94     1.084   1_556 S
C145   C146    1.395   .     A
C145   C150    1.399   .     A
C145   C535    1.473   1_545 S
C146   C147    1.386   .     A
C146   H151    1.084   .     S
C147   C148    1.391   .     A
C147   H152    1.083   .     S
C148   C149    1.398   .     A
C148   C161    1.528   .     S
C149   C150    1.384   .     A
C149   H153    1.085   .     S
C150   H154    1.084   .     S
C155   C156    1.391   .     A
C155   C160    1.386   .     A
C155   H193    1.083   .     S
C156   C157    1.398   .     A
C156   C161    1.532   .     S
C157   C158    1.384   .     A
C157   H194    1.085   .     S
C158   C159    1.399   .     A
C158   H195    1.084   .     S
C159   C160    1.397   .     A
C159   C256    1.473   .     S
C160   H196    1.084   .     S
C161   C162    1.528   .     S
C161   C173    1.532   .     S
C162   C163    1.391   .     A
C162   C167    1.397   .     A
C163   C164    1.387   .     A
C163   H197    1.084   .     S
C164   C165    1.397   .     A
C164   H198    1.084   .     S
C165   C117    1.473   1_655 S
C165   C166    1.399   .     A
C166   C167    1.382   .     A
C166   H199    1.084   .     S
C167   H200    1.085   .     S
C168   C169    1.387   .     A
C168   C173    1.389   .     A
C168   H201    1.083   .     S
C169   C170    1.390   .     A
C169   H202    1.083   .     S
C170   C171    1.398   .     A
C170   C174    1.532   .     S
C171   C172    1.385   .     A
C171   H203    1.085   .     S
C172   C173    1.397   .     A
C172   H204    1.085   .     S
C174   C178    1.532   .     S
C174   C181    1.533   .     S
C174   C192    1.534   .     S
C175   C176    1.395   .     A
C175   C180    1.397   .     A
C175   C1081   1.473   1_545 S
C176   C177    1.386   .     A
C176   H205    1.085   .     S
C177   C178    1.393   .     A
C177   H206    1.083   .     S
C178   C179    1.397   .     A
C179   C180    1.385   .     A
C179   H207    1.085   .     S
C180   H208    1.085   1_545 S
C181   C182    1.397   .     A
C181   C186    1.392   .     A
C182   C183    1.383   .     A
C182   H209    1.084   .     S
C183   C184    1.398   .     A
C183   H210    1.084   .     S
C184   C185    1.397   .     A
C184   C807    1.472   .     S
C185   C186    1.386   .     A
C185   H211    1.084   .     S
C186   H212    1.084   .     S
C187   C188    1.385   .     A
C187   C192    1.398   .     A
C187   H213    1.085   .     S
C188   C189    1.398   .     A
C188   H214    1.084   .     S
C189   C190    1.396   .     A
C189   C669    1.474   1_655 S
C190   C191    1.385   .     A
C190   H215    1.083   1_655 S
C191   C192    1.392   .     A
C191   H216    1.083   .     S
H208   C180    1.085   1_565 S
H215   C190    1.083   1_455 S
C217   C218    1.395   .     A
C217   C222    1.398   .     A
C217   C1039   1.473   1_554 S
C218   C219    1.386   .     A
C218   H223    1.085   1_554 S
C219   C220    1.391   .     A
C219   H224    1.083   .     S
C220   C221    1.398   .     A
C220   C233    1.528   .     S
C221   C222    1.384   .     A
C221   H225    1.085   .     S
C222   H226    1.084   .     S
H223   C218    1.085   1_556 S
C227   C228    1.391   .     A
C227   C232    1.386   .     A
C227   H265    1.083   .     S
C228   C229    1.398   .     A
C228   C233    1.532   .     S
C229   C230    1.384   .     A
C229   H266    1.085   .     S
C230   C231    1.398   .     A
C230   H267    1.084   .     S
C231   C232    1.397   .     A
C231   C760    1.472   1_554 S
C232   H268    1.084   .     S
C233   C234    1.528   .     S
C233   C245    1.532   .     S
C234   C235    1.391   .     A
C234   C239    1.397   .     A
C235   C236    1.387   .     A
C235   H269    1.084   .     S
C236   C237    1.396   .     A
C236   H270    1.084   .     S
C237   C238    1.399   .     A
C237   C621    1.474   1_554 S
C238   C239    1.382   .     A
C238   H271    1.084   1_554 S
C239   H272    1.085   .     S
C240   C241    1.387   .     A
C240   C245    1.389   .     A
C240   H273    1.083   .     S
C241   C242    1.390   .     A
C241   H274    1.083   .     S
C242   C243    1.398   .     A
C242   C246    1.532   .     S
C243   C244    1.385   .     A
C243   H275    1.085   .     S
C244   C245    1.397   .     A
C244   H276    1.085   .     S
C246   C250    1.532   .     S
C246   C253    1.532   .     S
C246   C264    1.535   .     S
C247   C248    1.395   .     A
C247   C252    1.397   .     A
C247   C433    1.473   .     S
C248   C249    1.385   .     A
C248   H277    1.084   .     S
C249   C250    1.393   .     A
C249   H278    1.083   .     S
C250   C251    1.396   .     A
C251   C252    1.384   .     A
C251   H279    1.084   .     S
C252   H280    1.084   .     S
C253   C254    1.397   .     A
C253   C258    1.392   .     A
C254   C255    1.383   .     A
C254   H281    1.084   .     S
C255   C256    1.398   .     A
C255   H282    1.084   .     S
C256   C257    1.397   .     A
C257   C258    1.386   .     A
C257   H283    1.084   .     S
C258   H284    1.084   .     S
C259   C260    1.385   .     A
C259   C264    1.398   .     A
C259   H285    1.084   .     S
C260   C261    1.398   .     A
C260   H286    1.084   .     S
C261   C262    1.396   .     A
C262   C263    1.385   .     A
C262   H287    1.084   .     S
C263   C264    1.391   .     A
C263   H288    1.082   .     S
H271   C238    1.084   1_556 S
C289   C290    1.395   .     A
C289   C294    1.398   .     A
C290   C291    1.386   .     A
C290   H295    1.084   .     S
C291   C292    1.391   .     A
C291   H296    1.083   .     S
C292   C293    1.398   .     A
C292   C305    1.528   .     S
C293   C294    1.384   .     A
C293   H297    1.085   .     S
C294   H298    1.084   .     S
C299   C300    1.391   .     A
C299   C304    1.386   .     A
C299   H337    1.083   .     S
C300   C301    1.398   .     A
C300   C305    1.532   .     S
C301   C302    1.384   .     A
C301   H338    1.085   .     S
C302   C303    1.399   .     A
C302   H339    1.084   .     S
C303   C304    1.397   .     A
C303   C400    1.473   .     S
C304   H340    1.084   .     S
C305   C306    1.528   .     S
C305   C317    1.532   .     S
C306   C307    1.391   .     A
C306   C311    1.397   .     A
C307   C308    1.387   .     A
C307   H341    1.084   .     S
C308   C309    1.397   .     A
C308   H342    1.084   .     S
C309   C310    1.399   .     A
C309   C549    1.473   .     S
C310   C311    1.382   .     A
C310   H343    1.084   .     S
C311   H344    1.085   .     S
C312   C313    1.387   .     A
C312   C317    1.389   .     A
C312   H345    1.083   .     S
C313   C314    1.390   .     A
C313   H346    1.083   .     S
C314   C315    1.398   .     A
C314   C318    1.532   .     S
C315   C316    1.385   .     A
C315   H347    1.085   .     S
C316   C317    1.397   .     A
C316   H348    1.085   .     S
C318   C322    1.532   .     S
C318   C325    1.533   .     S
C318   C336    1.534   .     S
C319   C320    1.395   .     A
C319   C324    1.397   .     A
C319   C649    1.473   .     S
C320   C321    1.386   .     A
C320   H349    1.085   .     S
C321   C322    1.393   .     A
C321   H350    1.083   .     S
C322   C323    1.397   .     A
C323   C324    1.385   .     A
C323   H351    1.085   .     S
C324   H352    1.085   .     S
C325   C326    1.397   .     A
C325   C330    1.392   .     A
C326   C327    1.383   .     A
C326   H353    1.084   .     S
C327   C328    1.398   .     A
C327   H354    1.084   .     S
C328   C329    1.397   .     A
C328   C951    1.472   .     S
C329   C330    1.386   .     A
C329   H355    1.084   .     S
C330   H356    1.084   .     S
C331   C332    1.385   .     A
C331   C336    1.398   .     A
C331   H357    1.085   .     S
C332   C333    1.398   .     A
C332   H358    1.084   .     S
C333   C334    1.396   .     A
C333   C1101   1.474   .     S
C334   C335    1.385   .     A
C334   H359    1.083   .     S
C335   C336    1.392   .     A
C335   H360    1.083   .     S
C361   C362    1.395   .     A
C361   C366    1.398   .     A
C361   C607    1.473   1_564 S
C362   C363    1.386   .     A
C362   H367    1.085   1_554 S
C363   C364    1.391   .     A
C363   H368    1.083   .     S
C364   C365    1.398   .     A
C364   C377    1.528   .     S
C365   C366    1.384   .     A
C365   H369    1.085   .     S
C366   H370    1.084   .     S
H367   C362    1.085   1_556 S
C371   C372    1.391   .     A
C371   C376    1.386   .     A
C371   H409    1.083   .     S
C372   C373    1.398   .     A
C372   C377    1.532   .     S
C373   C374    1.384   .     A
C373   H410    1.085   .     S
C374   C375    1.398   .     A
C374   H411    1.084   .     S
C375   C376    1.397   .     A
C375   C904    1.472   1_554 S
C376   H412    1.084   .     S
C377   C378    1.528   .     S
C377   C389    1.532   .     S
C378   C379    1.391   .     A
C378   C383    1.397   .     A
C379   C380    1.387   .     A
C379   H413    1.084   .     S
C380   C381    1.396   .     A
C380   H414    1.084   1_455 S
C381   C382    1.399   .     A
C381   C1053   1.474   1_454 S
C382   C383    1.382   .     A
C382   H415    1.084   1_554 S
C383   H416    1.085   .     S
C384   C385    1.387   .     A
C384   C389    1.389   .     A
C384   H417    1.083   .     S
C385   C386    1.390   .     A
C385   H418    1.083   .     S
C386   C387    1.398   .     A
C386   C390    1.532   .     S
C387   C388    1.385   .     A
C387   H419    1.085   .     S
C388   C389    1.397   .     A
C388   H420    1.085   .     S
C390   C394    1.532   .     S
C390   C397    1.532   .     S
C390   C408    1.535   .     S
C391   C1      1.473   1_565 S
C391   C392    1.395   .     A
C391   C396    1.397   .     A
C392   C393    1.385   .     A
C392   H421    1.084   .     S
C393   C394    1.393   .     A
C393   H422    1.083   .     S
C394   C395    1.396   .     A
C395   C396    1.384   .     A
C395   H423    1.084   .     S
C396   H424    1.084   .     S
C397   C398    1.397   .     A
C397   C402    1.392   .     A
C398   C399    1.383   .     A
C398   H425    1.084   .     S
C399   C400    1.398   .     A
C399   H426    1.084   .     S
C400   C401    1.397   .     A
C401   C402    1.386   .     A
C401   H427    1.084   .     S
C402   H428    1.084   .     S
C403   C404    1.385   .     A
C403   C408    1.398   .     A
C403   H429    1.084   .     S
C404   C405    1.398   .     A
C404   H430    1.084   .     S
C405   C406    1.396   .     A
C405   C453    1.473   1_455 S
C406   C407    1.385   .     A
C406   H431    1.084   .     S
C407   C408    1.391   .     A
C407   H432    1.082   .     S
H414   C380    1.084   1_655 S
H415   C382    1.084   1_556 S
C433   C434    1.395   .     A
C433   C438    1.399   .     A
C434   C435    1.386   .     A
C434   H439    1.084   .     S
C435   C436    1.391   .     A
C435   H440    1.083   .     S
C436   C437    1.398   .     A
C436   C449    1.528   .     S
C437   C438    1.384   .     A
C437   H441    1.085   .     S
C438   H442    1.084   .     S
C443   C444    1.391   .     A
C443   C448    1.386   .     A
C443   H481    1.083   .     S
C444   C445    1.398   .     A
C444   C449    1.532   .     S
C445   C446    1.384   .     A
C445   H482    1.085   .     S
C446   C447    1.399   .     A
C446   H483    1.084   .     S
C447   C448    1.397   .     A
C447   C544    1.473   .     S
C448   H484    1.084   .     S
C449   C450    1.528   .     S
C449   C461    1.532   .     S
C450   C451    1.391   .     A
C450   C455    1.397   .     A
C451   C452    1.387   .     A
C451   H485    1.084   .     S
C452   C453    1.397   .     A
C452   H486    1.084   .     S
C453   C405    1.473   1_655 S
C453   C454    1.399   .     A
C454   C455    1.382   .     A
C454   H487    1.084   .     S
C455   H488    1.085   .     S
C456   C457    1.387   .     A
C456   C461    1.389   .     A
C456   H489    1.083   .     S
C457   C458    1.390   .     A
C457   H490    1.083   .     S
C458   C459    1.398   .     A
C458   C462    1.532   .     S
C459   C460    1.385   .     A
C459   H491    1.085   .     S
C460   C461    1.397   .     A
C460   H492    1.085   .     S
C462   C466    1.532   .     S
C462   C469    1.533   .     S
C462   C480    1.534   .     S
C463   C464    1.395   .     A
C463   C468    1.397   .     A
C463   C793    1.473   .     S
C464   C465    1.386   .     A
C464   H493    1.085   .     S
C465   C466    1.393   .     A
C465   H494    1.083   .     S
C466   C467    1.397   .     A
C467   C468    1.385   .     A
C467   H495    1.085   .     S
C468   H496    1.085   .     S
C469   C470    1.397   .     A
C469   C474    1.392   .     A
C470   C471    1.383   .     A
C470   H497    1.084   .     S
C471   C472    1.398   .     A
C471   H498    1.084   .     S
C472   C473    1.397   .     A
C472   C1095   1.472   .     S
C473   C474    1.386   .     A
C473   H499    1.084   .     S
C474   H500    1.084   .     S
C475   C476    1.385   .     A
C475   C480    1.398   .     A
C475   H501    1.085   .     S
C476   C477    1.398   .     A
C476   H502    1.084   .     S
C477   C478    1.396   .     A
C477   C957    1.474   1_655 S
C478   C479    1.385   .     A
C478   H503    1.083   1_655 S
C479   C480    1.392   .     A
C479   H504    1.083   .     S
H503   C478    1.083   1_455 S
C505   C506    1.395   .     A
C505   C510    1.398   .     A
C505   C751    1.473   1_564 S
C506   C507    1.386   .     A
C506   H511    1.085   1_554 S
C507   C508    1.391   .     A
C507   H512    1.083   .     S
C508   C509    1.398   .     A
C508   C521    1.528   .     S
C509   C510    1.384   .     A
C509   H513    1.085   .     S
C510   H514    1.084   .     S
H511   C506    1.085   1_556 S
C515   C516    1.391   .     A
C515   C520    1.386   .     A
C515   H553    1.083   .     S
C516   C517    1.398   .     A
C516   C521    1.532   .     S
C517   C518    1.384   .     A
C517   H554    1.085   .     S
C518   C519    1.398   .     A
C518   H555    1.084   .     S
C519   C520    1.397   .     A
C519   C1048   1.472   1_554 S
C520   H556    1.084   .     S
C521   C522    1.528   .     S
C521   C533    1.532   .     S
C522   C523    1.391   .     A
C522   C527    1.397   .     A
C523   C524    1.387   .     A
C523   H557    1.084   .     S
C524   C525    1.396   .     A
C524   H558    1.084   .     S
C525   C526    1.399   .     A
C525   C909    1.474   1_554 S
C526   C527    1.382   .     A
C526   H559    1.084   1_554 S
C527   H560    1.085   .     S
C528   C529    1.387   .     A
C528   C533    1.389   .     A
C528   H561    1.083   .     S
C529   C530    1.390   .     A
C529   H562    1.083   .     S
C530   C531    1.398   .     A
C530   C534    1.532   .     S
C531   C532    1.385   .     A
C531   H563    1.085   .     S
C532   C533    1.397   .     A
C532   H564    1.085   .     S
C534   C538    1.532   .     S
C534   C541    1.532   .     S
C534   C552    1.535   .     S
C535   C145    1.473   1_565 S
C535   C536    1.395   .     A
C535   C540    1.397   .     A
C536   C537    1.385   .     A
C536   H565    1.084   .     S
C537   C538    1.393   .     A
C537   H566    1.083   .     S
C538   C539    1.396   .     A
C539   C540    1.384   .     A
C539   H567    1.084   .     S
C540   H568    1.084   .     S
C541   C542    1.397   .     A
C541   C546    1.392   .     A
C542   C543    1.383   .     A
C542   H569    1.084   .     S
C543   C544    1.398   .     A
C543   H570    1.084   .     S
C544   C545    1.397   .     A
C545   C546    1.386   .     A
C545   H571    1.084   .     S
C546   H572    1.084   .     S
C547   C548    1.385   .     A
C547   C552    1.398   .     A
C547   H573    1.084   .     S
C548   C549    1.398   .     A
C548   H574    1.084   .     S
C549   C550    1.396   .     A
C550   C551    1.385   .     A
C550   H575    1.084   .     S
C551   C552    1.391   .     A
C551   H576    1.082   .     S
H559   C526    1.084   1_556 S
C577   C578    1.395   .     A
C577   C582    1.398   .     A
C577   C967    1.473   1_545 S
C578   C579    1.386   .     A
C578   H583    1.084   .     S
C579   C580    1.391   .     A
C579   H584    1.083   .     S
C580   C581    1.398   .     A
C580   C593    1.528   .     S
C581   C582    1.384   .     A
C581   H585    1.085   .     S
C582   H586    1.084   .     S
C587   C588    1.391   .     A
C587   C592    1.386   .     A
C587   H625    1.083   .     S
C588   C589    1.398   .     A
C588   C593    1.532   .     S
C589   C590    1.384   .     A
C589   H626    1.085   .     S
C590   C591    1.399   .     A
C590   H627    1.084   .     S
C591   C592    1.397   .     A
C591   C688    1.473   .     S
C592   H628    1.084   .     S
C593   C594    1.528   .     S
C593   C605    1.532   .     S
C594   C595    1.391   .     A
C594   C599    1.397   .     A
C595   C596    1.387   .     A
C595   H629    1.084   .     S
C596   C597    1.397   .     A
C596   H630    1.084   .     S
C597   C598    1.399   .     A
C597   C837    1.473   .     S
C598   C599    1.382   .     A
C598   H631    1.084   .     S
C599   H632    1.085   .     S
C600   C601    1.387   .     A
C600   C605    1.389   .     A
C600   H633    1.083   .     S
C601   C602    1.390   .     A
C601   H634    1.083   .     S
C602   C603    1.398   .     A
C602   C606    1.532   .     S
C603   C604    1.385   .     A
C603   H635    1.085   .     S
C604   C605    1.397   .     A
C604   H636    1.085   .     S
C606   C610    1.532   .     S
C606   C613    1.533   .     S
C606   C624    1.534   .     S
C607   C361    1.473   1_546 S
C607   C608    1.395   .     A
C607   C612    1.397   .     A
C608   C609    1.386   .     A
C608   H637    1.085   1_556 S
C609   C610    1.393   .     A
C609   H638    1.083   .     S
C610   C611    1.397   .     A
C611   C612    1.385   .     A
C611   H639    1.085   .     S
C612   H640    1.085   1_545 S
C613   C614    1.397   .     A
C613   C618    1.392   .     A
C614   C615    1.383   .     A
C614   H641    1.084   .     S
C615   C616    1.398   .     A
C615   H642    1.084   .     S
C616   C87     1.472   1_556 S
C616   C617    1.397   .     A
C617   C618    1.386   .     A
C617   H643    1.084   .     S
C618   H644    1.084   .     S
C619   C620    1.385   .     A
C619   C624    1.398   .     A
C619   H645    1.085   .     S
C620   C621    1.398   .     A
C620   H646    1.084   1_556 S
C621   C237    1.474   1_556 S
C621   C622    1.396   .     A
C622   C623    1.385   .     A
C622   H647    1.083   .     S
C623   C624    1.392   .     A
C623   H648    1.083   .     S
H637   C608    1.085   1_554 S
H640   C612    1.085   1_565 S
H646   C620    1.084   1_554 S
C649   C650    1.395   .     A
C649   C654    1.398   .     A
C650   C651    1.386   .     A
C650   H655    1.085   .     S
C651   C652    1.391   .     A
C651   H656    1.083   .     S
C652   C653    1.398   .     A
C652   C665    1.528   .     S
C653   C654    1.384   .     A
C653   H657    1.085   .     S
C654   H658    1.084   .     S
C659   C660    1.391   .     A
C659   C664    1.386   .     A
C659   H697    1.083   .     S
C660   C661    1.398   .     A
C660   C665    1.532   .     S
C661   C662    1.384   .     A
C661   H698    1.085   .     S
C662   C663    1.398   .     A
C662   H699    1.084   .     S
C663   C664    1.397   .     A
C664   H700    1.084   .     S
C665   C666    1.528   .     S
C665   C677    1.532   .     S
C666   C667    1.391   .     A
C666   C671    1.397   .     A
C667   C668    1.387   .     A
C667   H701    1.084   .     S
C668   C669    1.396   .     A
C668   H702    1.084   1_455 S
C669   C189    1.474   1_455 S
C669   C670    1.399   .     A
C670   C671    1.382   .     A
C670   H703    1.084   .     S
C671   H704    1.085   .     S
C672   C673    1.387   .     A
C672   C677    1.389   .     A
C672   H705    1.083   .     S
C673   C674    1.390   .     A
C673   H706    1.083   .     S
C674   C675    1.398   .     A
C674   C678    1.532   .     S
C675   C676    1.385   .     A
C675   H707    1.085   .     S
C676   C677    1.397   .     A
C676   H708    1.085   .     S
C678   C682    1.532   .     S
C678   C685    1.532   .     S
C678   C696    1.535   .     S
C679   C680    1.395   .     A
C679   C684    1.397   .     A
C679   C865    1.473   .     S
C680   C681    1.385   .     A
C680   H709    1.084   .     S
C681   C682    1.393   .     A
C681   H710    1.083   .     S
C682   C683    1.396   .     A
C683   C684    1.384   .     A
C683   H711    1.084   .     S
C684   H712    1.084   .     S
C685   C686    1.397   .     A
C685   C690    1.392   .     A
C686   C687    1.383   .     A
C686   H713    1.084   .     S
C687   C688    1.398   .     A
C687   H714    1.084   .     S
C688   C689    1.397   .     A
C689   C690    1.386   .     A
C689   H715    1.084   .     S
C690   H716    1.084   .     S
C691   C692    1.385   .     A
C691   C696    1.398   .     A
C691   H717    1.084   .     S
C692   C693    1.398   .     A
C692   H718    1.084   .     S
C693   C694    1.396   .     A
C693   C741    1.473   1_455 S
C694   C695    1.385   .     A
C694   H719    1.084   .     S
C695   C696    1.391   .     A
C695   H720    1.082   .     S
H702   C668    1.084   1_655 S
C721   C722    1.395   .     A
C721   C726    1.399   .     A
C721   C1111   1.473   1_545 S
C722   C723    1.386   .     A
C722   H727    1.084   .     S
C723   C724    1.391   .     A
C723   H728    1.083   .     S
C724   C725    1.398   .     A
C724   C737    1.528   .     S
C725   C726    1.384   .     A
C725   H729    1.085   .     S
C726   H730    1.084   .     S
C731   C732    1.391   .     A
C731   C736    1.386   .     A
C731   H769    1.083   .     S
C732   C733    1.398   .     A
C732   C737    1.532   .     S
C733   C734    1.384   .     A
C733   H770    1.085   .     S
C734   C735    1.399   .     A
C734   H771    1.084   .     S
C735   C736    1.397   .     A
C735   C832    1.473   .     S
C736   H772    1.084   .     S
C737   C738    1.528   .     S
C737   C749    1.532   .     S
C738   C739    1.391   .     A
C738   C743    1.397   .     A
C739   C740    1.387   .     A
C739   H773    1.084   .     S
C740   C741    1.397   .     A
C740   H774    1.084   .     S
C741   C693    1.473   1_655 S
C741   C742    1.399   .     A
C742   C743    1.382   .     A
C742   H775    1.084   .     S
C743   H776    1.085   .     S
C744   C745    1.387   .     A
C744   C749    1.389   .     A
C744   H777    1.083   .     S
C745   C746    1.390   .     A
C745   H778    1.083   .     S
C746   C747    1.398   .     A
C746   C750    1.532   .     S
C747   C748    1.385   .     A
C747   H779    1.085   .     S
C748   C749    1.397   .     A
C748   H780    1.085   .     S
C750   C754    1.532   .     S
C750   C757    1.533   .     S
C750   C768    1.534   .     S
C751   C505    1.473   1_546 S
C751   C752    1.395   .     A
C751   C756    1.397   .     A
C752   C753    1.386   .     A
C752   H781    1.085   1_556 S
C753   C754    1.393   .     A
C753   H782    1.083   .     S
C754   C755    1.397   .     A
C755   C756    1.385   .     A
C755   H783    1.085   .     S
C756   H784    1.085   1_545 S
C757   C758    1.397   .     A
C757   C762    1.392   .     A
C758   C759    1.383   .     A
C758   H785    1.084   .     S
C759   C760    1.398   .     A
C759   H786    1.084   .     S
C760   C231    1.472   1_556 S
C760   C761    1.397   .     A
C761   C762    1.386   .     A
C761   H787    1.084   .     S
C762   H788    1.084   .     S
C763   C764    1.385   .     A
C763   C768    1.398   .     A
C763   H789    1.085   .     S
C764   C765    1.398   .     A
C764   H790    1.084   1_556 S
C765   C93     1.474   1_656 S
C765   C766    1.396   .     A
C766   C767    1.385   .     A
C766   H791    1.083   1_655 S
C767   C768    1.392   .     A
C767   H792    1.083   .     S
H781   C752    1.085   1_554 S
H784   C756    1.085   1_565 S
H790   C764    1.084   1_554 S
H791   C766    1.083   1_455 S
C793   C794    1.395   .     A
C793   C798    1.398   .     A
C794   C795    1.386   .     A
C794   H799    1.085   .     S
C795   C796    1.391   .     A
C795   H800    1.083   .     S
C796   C797    1.398   .     A
C796   C809    1.528   .     S
C797   C798    1.384   .     A
C797   H801    1.085   .     S
C798   H802    1.084   .     S
C803   C804    1.391   .     A
C803   C808    1.386   .     A
C803   H841    1.083   .     S
C804   C805    1.398   .     A
C804   C809    1.532   .     S
C805   C806    1.384   .     A
C805   H842    1.085   .     S
C806   C807    1.398   .     A
C806   H843    1.084   .     S
C807   C808    1.397   .     A
C808   H844    1.084   .     S
C809   C810    1.528   .     S
C809   C821    1.532   .     S
C810   C811    1.391   .     A
C810   C815    1.397   .     A
C811   C812    1.387   .     A
C811   H845    1.084   .     S
C812   C813    1.396   .     A
C812   H846    1.084   .     S
C813   C814    1.399   .     A
C814   C815    1.382   .     A
C814   H847    1.084   .     S
C815   H848    1.085   .     S
C816   C817    1.387   .     A
C816   C821    1.389   .     A
C816   H849    1.083   .     S
C817   C818    1.390   .     A
C817   H850    1.083   .     S
C818   C819    1.398   .     A
C818   C822    1.532   .     S
C819   C820    1.385   .     A
C819   H851    1.085   .     S
C820   C821    1.397   .     A
C820   H852    1.085   .     S
C822   C826    1.532   .     S
C822   C829    1.532   .     S
C822   C840    1.535   .     S
C823   C824    1.395   .     A
C823   C828    1.397   .     A
C823   C1009   1.473   .     S
C824   C825    1.385   .     A
C824   H853    1.084   .     S
C825   C826    1.393   .     A
C825   H854    1.083   .     S
C826   C827    1.396   .     A
C827   C828    1.384   .     A
C827   H855    1.084   .     S
C828   H856    1.084   .     S
C829   C830    1.397   .     A
C829   C834    1.392   .     A
C830   C831    1.383   .     A
C830   H857    1.084   .     S
C831   C832    1.398   .     A
C831   H858    1.084   .     S
C832   C833    1.397   .     A
C833   C834    1.386   .     A
C833   H859    1.084   .     S
C834   H860    1.084   .     S
C835   C836    1.385   .     A
C835   C840    1.398   .     A
C835   H861    1.084   .     S
C836   C837    1.398   .     A
C836   H862    1.084   .     S
C837   C838    1.396   .     A
C838   C839    1.385   .     A
C838   H863    1.084   .     S
C839   C840    1.391   .     A
C839   H864    1.082   .     S
C865   C866    1.395   .     A
C865   C870    1.398   .     A
C866   C867    1.386   .     A
C866   H871    1.084   .     S
C867   C868    1.391   .     A
C867   H872    1.083   .     S
C868   C869    1.398   .     A
C868   C881    1.528   .     S
C869   C870    1.384   .     A
C869   H873    1.085   .     S
C870   H874    1.084   .     S
C875   C876    1.391   .     A
C875   C880    1.386   .     A
C875   H913    1.083   .     S
C876   C877    1.398   .     A
C876   C881    1.532   .     S
C877   C878    1.384   .     A
C877   H914    1.085   .     S
C878   C879    1.399   .     A
C878   H915    1.084   .     S
C879   C880    1.397   .     A
C879   C976    1.473   .     S
C880   H916    1.084   .     S
C881   C882    1.528   .     S
C881   C893    1.532   .     S
C882   C883    1.391   .     A
C882   C887    1.397   .     A
C883   C884    1.387   .     A
C883   H917    1.084   .     S
C884   C885    1.397   .     A
C884   H918    1.084   .     S
C885   C886    1.399   .     A
C885   C1125   1.473   .     S
C886   C887    1.382   .     A
C886   H919    1.084   .     S
C887   H920    1.085   .     S
C888   C889    1.387   .     A
C888   C893    1.389   .     A
C888   H921    1.083   .     S
C889   C890    1.390   .     A
C889   H922    1.083   .     S
C890   C891    1.398   .     A
C890   C894    1.532   .     S
C891   C892    1.385   .     A
C891   H923    1.085   .     S
C892   C893    1.397   .     A
C892   H924    1.085   .     S
C894   C898    1.532   .     S
C894   C901    1.533   .     S
C894   C912    1.534   .     S
C895   C73     1.473   1_556 S
C895   C896    1.395   .     A
C895   C900    1.397   .     A
C896   C897    1.386   .     A
C896   H925    1.085   1_556 S
C897   C898    1.393   .     A
C897   H926    1.083   .     S
C898   C899    1.397   .     A
C899   C900    1.385   .     A
C899   H927    1.085   .     S
C900   H928    1.085   .     S
C901   C902    1.397   .     A
C901   C906    1.392   .     A
C902   C903    1.383   .     A
C902   H929    1.084   .     S
C903   C904    1.398   .     A
C903   H930    1.084   .     S
C904   C375    1.472   1_556 S
C904   C905    1.397   .     A
C905   C906    1.386   .     A
C905   H931    1.084   .     S
C906   H932    1.084   .     S
C907   C908    1.385   .     A
C907   C912    1.398   .     A
C907   H933    1.085   .     S
C908   C909    1.398   .     A
C908   H934    1.084   1_556 S
C909   C525    1.474   1_556 S
C909   C910    1.396   .     A
C910   C911    1.385   .     A
C910   H935    1.083   .     S
C911   C912    1.392   .     A
C911   H936    1.083   .     S
H925   C896    1.085   1_554 S
H934   C908    1.084   1_554 S
C937   C31     1.473   1_565 S
C937   C938    1.395   .     A
C937   C942    1.398   .     A
C938   C939    1.386   .     A
C938   H943    1.085   .     S
C939   C940    1.391   .     A
C939   H944    1.083   .     S
C940   C941    1.398   .     A
C940   C953    1.528   .     S
C941   C942    1.384   .     A
C941   H945    1.085   .     S
C942   H946    1.084   .     S
C947   C948    1.391   .     A
C947   C952    1.386   .     A
C947   H985    1.083   .     S
C948   C949    1.398   .     A
C948   C953    1.532   .     S
C949   C950    1.384   .     A
C949   H986    1.085   .     S
C950   C951    1.398   .     A
C950   H987    1.084   .     S
C951   C952    1.397   .     A
C952   H988    1.084   .     S
C953   C954    1.528   .     S
C953   C965    1.532   .     S
C954   C955    1.391   .     A
C954   C959    1.397   .     A
C955   C956    1.387   .     A
C955   H989    1.084   .     S
C956   C957    1.396   .     A
C956   H990    1.084   1_455 S
C957   C477    1.474   1_455 S
C957   C958    1.399   .     A
C958   C959    1.382   .     A
C958   H991    1.084   .     S
C959   H992    1.085   .     S
C960   C961    1.387   .     A
C960   C965    1.389   .     A
C960   H993    1.083   .     S
C961   C962    1.390   .     A
C961   H994    1.083   .     S
C962   C963    1.398   .     A
C962   C966    1.532   .     S
C963   C964    1.385   .     A
C963   H995    1.085   .     S
C964   C965    1.397   .     A
C964   H996    1.085   .     S
C966   C970    1.532   .     S
C966   C973    1.532   .     S
C966   C984    1.535   .     S
C967   C577    1.473   1_565 S
C967   C968    1.395   .     A
C967   C972    1.397   .     A
C968   C969    1.385   .     A
C968   H997    1.084   .     S
C969   C970    1.393   .     A
C969   H998    1.083   .     S
C970   C971    1.396   .     A
C971   C972    1.384   .     A
C971   H999    1.084   .     S
C972   H1000   1.084   .     S
C973   C974    1.397   .     A
C973   C978    1.392   .     A
C974   C975    1.383   .     A
C974   H1001   1.084   .     S
C975   C976    1.398   .     A
C975   H1002   1.084   .     S
C976   C977    1.397   .     A
C977   C978    1.386   .     A
C977   H1003   1.084   .     S
C978   H1004   1.084   .     S
C979   C980    1.385   .     A
C979   C984    1.398   .     A
C979   H1005   1.084   .     S
C980   C981    1.398   .     A
C980   H1006   1.084   .     S
C981   C982    1.396   .     A
C981   C1029   1.473   1_455 S
C982   C983    1.385   .     A
C982   H1007   1.084   .     S
C983   C984    1.391   .     A
C983   H1008   1.082   .     S
H990   C956    1.084   1_655 S
C1009  C1010   1.395   .     A
C1009  C1014   1.399   .     A
C1010  C1011   1.386   .     A
C1010  H1015   1.084   .     S
C1011  C1012   1.391   .     A
C1011  H1016   1.083   .     S
C1012  C1013   1.398   .     A
C1012  C1025   1.528   .     S
C1013  C1014   1.384   .     A
C1013  H1017   1.085   .     S
C1014  H1018   1.084   .     S
C1019  C1020   1.391   .     A
C1019  C1024   1.386   .     A
C1019  H1057   1.083   .     S
C1020  C1021   1.398   .     A
C1020  C1025   1.532   .     S
C1021  C1022   1.384   .     A
C1021  H1058   1.085   .     S
C1022  C1023   1.399   .     A
C1022  H1059   1.084   .     S
C1023  C1024   1.397   .     A
C1023  C1120   1.473   .     S
C1024  H1060   1.084   .     S
C1025  C1026   1.528   .     S
C1025  C1037   1.532   .     S
C1026  C1027   1.391   .     A
C1026  C1031   1.397   .     A
C1027  C1028   1.387   .     A
C1027  H1061   1.084   .     S
C1028  C1029   1.397   .     A
C1028  H1062   1.084   .     S
C1029  C981    1.473   1_655 S
C1029  C1030   1.399   .     A
C1030  C1031   1.382   .     A
C1030  H1063   1.084   .     S
C1031  H1064   1.085   .     S
C1032  C1033   1.387   .     A
C1032  C1037   1.389   .     A
C1032  H1065   1.083   .     S
C1033  C1034   1.390   .     A
C1033  H1066   1.083   .     S
C1034  C1035   1.398   .     A
C1034  C1038   1.532   .     S
C1035  C1036   1.385   .     A
C1035  H1067   1.085   .     S
C1036  C1037   1.397   .     A
C1036  H1068   1.085   .     S
C1038  C1042   1.532   .     S
C1038  C1045   1.533   .     S
C1038  C1056   1.534   .     S
C1039  C217    1.473   1_556 S
C1039  C1040   1.395   .     A
C1039  C1044   1.397   .     A
C1040  C1041   1.386   .     A
C1040  H1069   1.085   1_556 S
C1041  C1042   1.393   .     A
C1041  H1070   1.083   .     S
C1042  C1043   1.397   .     A
C1043  C1044   1.385   .     A
C1043  H1071   1.085   .     S
C1044  H1072   1.085   .     S
C1045  C1046   1.397   .     A
C1045  C1050   1.392   .     A
C1046  C1047   1.383   .     A
C1046  H1073   1.084   .     S
C1047  C1048   1.398   .     A
C1047  H1074   1.084   .     S
C1048  C519    1.472   1_556 S
C1048  C1049   1.397   .     A
C1049  C1050   1.386   .     A
C1049  H1075   1.084   .     S
C1050  H1076   1.084   .     S
C1051  C1052   1.385   .     A
C1051  C1056   1.398   .     A
C1051  H1077   1.085   .     S
C1052  C1053   1.398   .     A
C1052  H1078   1.084   1_556 S
C1053  C381    1.474   1_656 S
C1053  C1054   1.396   .     A
C1054  C1055   1.385   .     A
C1054  H1079   1.083   1_655 S
C1055  C1056   1.392   .     A
C1055  H1080   1.083   .     S
H1069  C1040   1.085   1_554 S
H1078  C1052   1.084   1_554 S
H1079  C1054   1.083   1_455 S
C1081  C175    1.473   1_565 S
C1081  C1082   1.395   .     A
C1081  C1086   1.398   .     A
C1082  C1083   1.386   .     A
C1082  H1087   1.085   .     S
C1083  C1084   1.391   .     A
C1083  H1088   1.083   .     S
C1084  C1085   1.398   .     A
C1084  C1097   1.528   .     S
C1085  C1086   1.384   .     A
C1085  H1089   1.085   .     S
C1086  H1090   1.084   .     S
C1091  C1092   1.391   .     A
C1091  C1096   1.386   .     A
C1091  H1129   1.083   .     S
C1092  C1093   1.398   .     A
C1092  C1097   1.532   .     S
C1093  C1094   1.384   .     A
C1093  H1130   1.085   .     S
C1094  C1095   1.398   .     A
C1094  H1131   1.084   .     S
C1095  C1096   1.397   .     A
C1096  H1132   1.084   .     S
C1097  C1098   1.528   .     S
C1097  C1109   1.532   .     S
C1098  C1099   1.391   .     A
C1098  C1103   1.397   .     A
C1099  C1100   1.387   .     A
C1099  H1133   1.084   .     S
C1100  C1101   1.396   .     A
C1100  H1134   1.084   .     S
C1101  C1102   1.399   .     A
C1102  C1103   1.382   .     A
C1102  H1135   1.084   .     S
C1103  H1136   1.085   .     S
C1104  C1105   1.387   .     A
C1104  C1109   1.389   .     A
C1104  H1137   1.083   .     S
C1105  C1106   1.390   .     A
C1105  H1138   1.083   .     S
C1106  C1107   1.398   .     A
C1106  C1110   1.532   .     S
C1107  C1108   1.385   .     A
C1107  H1139   1.085   .     S
C1108  C1109   1.397   .     A
C1108  H1140   1.085   .     S
C1110  C1114   1.532   .     S
C1110  C1117   1.532   .     S
C1110  C1128   1.535   .     S
C1111  C721    1.473   1_565 S
C1111  C1112   1.395   .     A
C1111  C1116   1.397   .     A
C1112  C1113   1.385   .     A
C1112  H1141   1.084   .     S
C1113  C1114   1.393   .     A
C1113  H1142   1.083   .     S
C1114  C1115   1.396   .     A
C1115  C1116   1.384   .     A
C1115  H1143   1.084   .     S
C1116  H1144   1.084   .     S
C1117  C1118   1.397   .     A
C1117  C1122   1.392   .     A
C1118  C1119   1.383   .     A
C1118  H1145   1.084   .     S
C1119  C1120   1.398   .     A
C1119  H1146   1.084   .     S
C1120  C1121   1.397   .     A
C1121  C1122   1.386   .     A
C1121  H1147   1.084   .     S
C1122  H1148   1.084   .     S
C1123  C1124   1.385   .     A
C1123  C1128   1.398   .     A
C1123  H1149   1.084   .     S
C1124  C1125   1.398   .     A
C1124  H1150   1.084   .     S
C1125  C1126   1.396   .     A
C1126  C1127   1.385   .     A
C1126  H1151   1.084   .     S
C1127  C1128   1.391   .     A
C1127  H1152   1.082   .     S
