data_C_bcs_opt
_audit_creation_date              2023-12-03
_audit_creation_method            'Materials Studio'
_symmetry_space_group_name_H-M    'P1'
_symmetry_Int_Tables_number       1
_symmetry_cell_setting            triclinic
loop_
_symmetry_equiv_pos_as_xyz
  x,y,z
_cell_length_a                    31.1923
_cell_length_b                    30.7716
_cell_length_c                    27.5547
_cell_angle_alpha                 88.9626
_cell_angle_beta                  90.5686
_cell_angle_gamma                 94.5142
loop_
_atom_site_label
_atom_site_type_symbol
_atom_site_fract_x
_atom_site_fract_y
_atom_site_fract_z
_atom_site_U_iso_or_equiv
_atom_site_adp_type
_atom_site_occupancy
C1     C     0.60241   0.63317   0.42844   0.00000  Uiso   1.00
C2     C     0.57097   0.66061   0.44157   0.00000  Uiso   1.00
C3     C     0.53121   0.64349   0.45776   0.00000  Uiso   1.00
C4     C     0.52152   0.59845   0.46174   0.00000  Uiso   1.00
C5     C     0.55427   0.57143   0.45300   0.00000  Uiso   1.00
C6     C     0.59402   0.58843   0.43639   0.00000  Uiso   1.00
H1     H     0.57685   0.69562   0.43661   0.00000  Uiso   1.00
H2     H     0.50693   0.66555   0.46601   0.00000  Uiso   1.00
H3     H     0.54884   0.53641   0.45776   0.00000  Uiso   1.00
H4     H     0.61843   0.56639   0.42855   0.00000  Uiso   1.00
C7     C     0.45721   0.61032   0.38684   0.00000  Uiso   1.00
C8     C     0.44717   0.58293   0.42652   0.00000  Uiso   1.00
C9     C     0.40749   0.55834   0.42614   0.00000  Uiso   1.00
C10    C     0.37781   0.56348   0.38936   0.00000  Uiso   1.00
C11    C     0.38667   0.59356   0.35146   0.00000  Uiso   1.00
C12    C     0.42744   0.61554   0.34975   0.00000  Uiso   1.00
C13    C     0.47525   0.58096   0.47243   0.00000  Uiso   1.00
C14    C     0.45716   0.60978   0.51096   0.00000  Uiso   1.00
C15    C     0.48108   0.61981   0.55304   0.00000  Uiso   1.00
C16    C     0.46447   0.64333   0.58996   0.00000  Uiso   1.00
C17    C     0.42349   0.65839   0.58571   0.00000  Uiso   1.00
C18    C     0.40072   0.65063   0.54250   0.00000  Uiso   1.00
C19    C     0.41719   0.62668   0.50597   0.00000  Uiso   1.00
C20    C     0.47781   0.50100   0.45488   0.00000  Uiso   1.00
C21    C     0.47759   0.45731   0.46815   0.00000  Uiso   1.00
C22    C     0.47420   0.44429   0.51670   0.00000  Uiso   1.00
C23    C     0.46842   0.47614   0.55084   0.00000  Uiso   1.00
C24    C     0.46835   0.51981   0.53751   0.00000  Uiso   1.00
C25    C     0.47379   0.53318   0.48936   0.00000  Uiso   1.00
C26    C     0.47299   0.39661   0.53295   0.00000  Uiso   1.00
C27    C     0.34133   0.34141   0.54454   0.00000  Uiso   1.00
C28    C     0.36226   0.34304   0.49985   0.00000  Uiso   1.00
C29    C     0.40334   0.36329   0.49524   0.00000  Uiso   1.00
C30    C     0.42513   0.38152   0.53537   0.00000  Uiso   1.00
C31    C     0.40184   0.38546   0.57780   0.00000  Uiso   1.00
C32    C     0.36063   0.36559   0.58246   0.00000  Uiso   1.00
C33    C     0.49586   0.39124   0.58187   0.00000  Uiso   1.00
C34    C     0.53188   0.41841   0.59493   0.00000  Uiso   1.00
C35    C     0.55509   0.41060   0.63700   0.00000  Uiso   1.00
C36    C     0.54295   0.37508   0.66730   0.00000  Uiso   1.00
C37    C     0.50679   0.34791   0.65410   0.00000  Uiso   1.00
C38    C     0.48398   0.35556   0.61201   0.00000  Uiso   1.00
C39    C     0.48566   0.32296   0.49685   0.00000  Uiso   1.00
C40    C     0.50933   0.29580   0.46995   0.00000  Uiso   1.00
C41    C     0.54695   0.31191   0.44663   0.00000  Uiso   1.00
C42    C     0.56021   0.35603   0.45214   0.00000  Uiso   1.00
C43    C     0.53629   0.38315   0.47876   0.00000  Uiso   1.00
C44    C     0.49785   0.36744   0.50058   0.00000  Uiso   1.00
H5     H     0.48806   0.62907   0.38490   0.00000  Uiso   1.00
H6     H     0.39911   0.53580   0.45587   0.00000  Uiso   1.00
H7     H     0.34700   0.54454   0.39059   0.00000  Uiso   1.00
H8     H     0.43553   0.63852   0.32032   0.00000  Uiso   1.00
H9     H     0.51310   0.60874   0.55728   0.00000  Uiso   1.00
H10    H     0.48363   0.64988   0.62246   0.00000  Uiso   1.00
H11    H     0.36890   0.66209   0.53793   0.00000  Uiso   1.00
H12    H     0.39774   0.62089   0.47364   0.00000  Uiso   1.00
H13    H     0.48076   0.51008   0.41677   0.00000  Uiso   1.00
H14    H     0.48016   0.43338   0.44014   0.00000  Uiso   1.00
H15    H     0.46395   0.46701   0.58875   0.00000  Uiso   1.00
H16    H     0.46376   0.54323   0.56550   0.00000  Uiso   1.00
H17    H     0.34686   0.32722   0.46867   0.00000  Uiso   1.00
H18    H     0.41926   0.36301   0.46045   0.00000  Uiso   1.00
H19    H     0.41664   0.40233   0.60865   0.00000  Uiso   1.00
H20    H     0.34440   0.36660   0.61700   0.00000  Uiso   1.00
H21    H     0.54263   0.44585   0.57167   0.00000  Uiso   1.00
H22    H     0.58306   0.43226   0.64595   0.00000  Uiso   1.00
H23    H     0.49734   0.31923   0.67608   0.00000  Uiso   1.00
H24    H     0.45710   0.33282   0.60227   0.00000  Uiso   1.00
H25    H     0.45713   0.30886   0.51517   0.00000  Uiso   1.00
H26    H     0.49861   0.26148   0.46776   0.00000  Uiso   1.00
H27    H     0.58942   0.36966   0.43477   0.00000  Uiso   1.00
H28    H     0.54800   0.41707   0.48246   0.00000  Uiso   1.00
C45    C     0.57017   0.57659   0.82314   0.00000  Uiso   1.00
C46    C     0.53539   0.55096   0.80367   0.00000  Uiso   1.00
C47    C     0.50733   0.52599   0.83342   0.00000  Uiso   1.00
C48    C     0.51372   0.52421   0.88364   0.00000  Uiso   1.00
C49    C     0.54957   0.54800   0.90285   0.00000  Uiso   1.00
C50    C     0.57715   0.57374   0.87323   0.00000  Uiso   1.00
H29    H     0.52927   0.55129   0.76487   0.00000  Uiso   1.00
H30    H     0.47905   0.50908   0.81725   0.00000  Uiso   1.00
H31    H     0.55546   0.54806   0.94167   0.00000  Uiso   1.00
H32    H     0.60341   0.59335   0.89007   0.00000  Uiso   1.00
C51    C     0.47316   0.43389   0.86565   0.00000  Uiso   1.00
C52    C     0.45985   0.45821   0.90400   0.00000  Uiso   1.00
C53    C     0.42569   0.44042   0.93237   0.00000  Uiso   1.00
C54    C     0.40290   0.40197   0.91981   0.00000  Uiso   1.00
C55    C     0.41316   0.38025   0.87787   0.00000  Uiso   1.00
C56    C     0.44957   0.39573   0.85212   0.00000  Uiso   1.00
C57    C     0.47784   0.50436   0.91624   0.00000  Uiso   1.00
C58    C     0.44295   0.53617   0.90727   0.00000  Uiso   1.00
C59    C     0.45050   0.57955   0.92121   0.00000  Uiso   1.00
C60    C     0.42185   0.61024   0.90915   0.00000  Uiso   1.00
C61    C     0.38479   0.59857   0.88200   0.00000  Uiso   1.00
C62    C     0.37688   0.55497   0.86912   0.00000  Uiso   1.00
C63    C     0.40547   0.52435   0.88137   0.00000  Uiso   1.00
C64    C     0.52558   0.47912   0.98403   0.00000  Uiso   1.00
C65    C     0.53505   0.47256   0.03285   0.00000  Uiso   1.00
C66    C     0.50882   0.48756   0.06839   0.00000  Uiso   1.00
C67    C     0.47450   0.51134   0.05395   0.00000  Uiso   1.00
C68    C     0.46521   0.51804   0.00541   0.00000  Uiso   1.00
C69    C     0.49057   0.50186   0.96965   0.00000  Uiso   1.00
C70    C     0.51584   0.48232   0.12290   0.00000  Uiso   1.00
C71    C     0.39934   0.42115   0.18839   0.00000  Uiso   1.00
C72    C     0.41036   0.41459   0.14018   0.00000  Uiso   1.00
C73    C     0.44629   0.43651   0.11989   0.00000  Uiso   1.00
C74    C     0.47307   0.46610   0.14649   0.00000  Uiso   1.00
C75    C     0.46254   0.47225   0.19476   0.00000  Uiso   1.00
C76    C     0.42609   0.45050   0.21519   0.00000  Uiso   1.00
C77    C     0.53885   0.52623   0.13594   0.00000  Uiso   1.00
C78    C     0.58127   0.53308   0.11973   0.00000  Uiso   1.00
C79    C     0.60620   0.57098   0.12949   0.00000  Uiso   1.00
C80    C     0.58969   0.60380   0.15649   0.00000  Uiso   1.00
C81    C     0.54657   0.59798   0.17023   0.00000  Uiso   1.00
C82    C     0.52127   0.56002   0.15964   0.00000  Uiso   1.00
C83    C     0.56503   0.45181   0.18468   0.00000  Uiso   1.00
C84    C     0.58450   0.41787   0.20693   0.00000  Uiso   1.00
C85    C     0.58316   0.37702   0.18544   0.00000  Uiso   1.00
C86    C     0.56262   0.37179   0.14043   0.00000  Uiso   1.00
C87    C     0.54251   0.40571   0.11853   0.00000  Uiso   1.00
C88    C     0.54344   0.44622   0.14036   0.00000  Uiso   1.00
H33    H     0.50139   0.44494   0.84490   0.00000  Uiso   1.00
H34    H     0.41572   0.45782   0.96367   0.00000  Uiso   1.00
H35    H     0.37538   0.38985   0.94122   0.00000  Uiso   1.00
H36    H     0.45939   0.37837   0.82070   0.00000  Uiso   1.00
H37    H     0.47976   0.58975   0.94090   0.00000  Uiso   1.00
H38    H     0.42882   0.64367   0.92035   0.00000  Uiso   1.00
H39    H     0.34889   0.54495   0.84722   0.00000  Uiso   1.00
H40    H     0.39851   0.49126   0.86921   0.00000  Uiso   1.00
H41    H     0.54555   0.46581   0.95686   0.00000  Uiso   1.00
H42    H     0.56282   0.45514   0.04265   0.00000  Uiso   1.00
H43    H     0.45423   0.52413   0.08116   0.00000  Uiso   1.00
H44    H     0.43757   0.53569   0.99577   0.00000  Uiso   1.00
H45    H     0.45395   0.42971   0.08264   0.00000  Uiso   1.00
H46    H     0.48310   0.49366   0.21742   0.00000  Uiso   1.00
H47    H     0.41864   0.45653   0.25273   0.00000  Uiso   1.00
H48    H     0.59523   0.50777   0.09965   0.00000  Uiso   1.00
H49    H     0.63890   0.57491   0.11621   0.00000  Uiso   1.00
H50    H     0.53253   0.62294   0.19079   0.00000  Uiso   1.00
H51    H     0.48797   0.55693   0.17092   0.00000  Uiso   1.00
H52    H     0.56567   0.48281   0.20285   0.00000  Uiso   1.00
H53    H     0.59954   0.42291   0.24222   0.00000  Uiso   1.00
H54    H     0.56169   0.34071   0.12239   0.00000  Uiso   1.00
H55    H     0.52514   0.39985   0.08473   0.00000  Uiso   1.00
C89    C     0.60267   0.17933   0.64355   0.00000  Uiso   1.00
C90    C     0.58269   0.21749   0.65148   0.00000  Uiso   1.00
C91    C     0.59194   0.24181   0.69245   0.00000  Uiso   1.00
C92    C     0.62237   0.22978   0.72651   0.00000  Uiso   1.00
C93    C     0.64366   0.19250   0.71742   0.00000  Uiso   1.00
C94    C     0.63371   0.16737   0.67690   0.00000  Uiso   1.00
H56    H     0.55813   0.22734   0.62636   0.00000  Uiso   1.00
H57    H     0.57393   0.26994   0.69752   0.00000  Uiso   1.00
H58    H     0.66778   0.18223   0.74286   0.00000  Uiso   1.00
H59    H     0.65010   0.13806   0.67151   0.00000  Uiso   1.00
C95    C     0.58899   0.18786   0.81111   0.00000  Uiso   1.00
C96    C     0.60480   0.23122   0.81488   0.00000  Uiso   1.00
C97    C     0.59889   0.25230   0.85860   0.00000  Uiso   1.00
C98    C     0.58024   0.22999   0.89813   0.00000  Uiso   1.00
C99    C     0.56605   0.18606   0.89459   0.00000  Uiso   1.00
C100   C     0.56965   0.16567   0.85023   0.00000  Uiso   1.00
C101   C     0.63017   0.25505   0.77396   0.00000  Uiso   1.00
C102   C     0.61341   0.29975   0.76323   0.00000  Uiso   1.00
C103   C     0.63550   0.32915   0.73132   0.00000  Uiso   1.00
C104   C     0.61366   0.35854   0.70376   0.00000  Uiso   1.00
C105   C     0.56914   0.35966   0.70793   0.00000  Uiso   1.00
C106   C     0.54910   0.33675   0.74686   0.00000  Uiso   1.00
C107   C     0.57078   0.30685   0.77365   0.00000  Uiso   1.00
C108   C     0.69248   0.25681   0.83525   0.00000  Uiso   1.00
C109   C     0.73588   0.26104   0.84677   0.00000  Uiso   1.00
C110   C     0.76687   0.26637   0.81061   0.00000  Uiso   1.00
C111   C     0.75275   0.26564   0.76256   0.00000  Uiso   1.00
C112   C     0.70920   0.26201   0.75111   0.00000  Uiso   1.00
C113   C     0.67809   0.25810   0.78726   0.00000  Uiso   1.00
C114   C     0.81432   0.27421   0.82442   0.00000  Uiso   1.00
C115   C     0.84106   0.38390   0.91884   0.00000  Uiso   1.00
C116   C     0.86634   0.34865   0.92205   0.00000  Uiso   1.00
C117   C     0.85564   0.31139   0.89566   0.00000  Uiso   1.00
C118   C     0.81948   0.30801   0.86547   0.00000  Uiso   1.00
C119   C     0.79117   0.34094   0.86832   0.00000  Uiso   1.00
C120   C     0.80202   0.37860   0.89396   0.00000  Uiso   1.00
C121   C     0.83755   0.29771   0.78119   0.00000  Uiso   1.00
C122   C     0.86880   0.28096   0.75275   0.00000  Uiso   1.00
C123   C     0.88873   0.30574   0.71534   0.00000  Uiso   1.00
C124   C     0.87739   0.34776   0.70429   0.00000  Uiso   1.00
C125   C     0.84400   0.36332   0.73080   0.00000  Uiso   1.00
C126   C     0.82491   0.33896   0.76823   0.00000  Uiso   1.00
C127   C     0.87698   0.22964   0.84873   0.00000  Uiso   1.00
C128   C     0.89310   0.19508   0.87405   0.00000  Uiso   1.00
C129   C     0.86582   0.16102   0.89338   0.00000  Uiso   1.00
C130   C     0.82204   0.16130   0.88241   0.00000  Uiso   1.00
C131   C     0.80601   0.19600   0.85724   0.00000  Uiso   1.00
C132   C     0.83274   0.23202   0.84186   0.00000  Uiso   1.00
H60    H     0.59199   0.17045   0.77767   0.00000  Uiso   1.00
H61    H     0.60941   0.28656   0.86205   0.00000  Uiso   1.00
H62    H     0.57673   0.24686   0.93190   0.00000  Uiso   1.00
H63    H     0.66941   0.32675   0.72466   0.00000  Uiso   1.00
H64    H     0.63080   0.37794   0.67582   0.00000  Uiso   1.00
H65    H     0.51536   0.33984   0.75401   0.00000  Uiso   1.00
H66    H     0.55278   0.28646   0.80000   0.00000  Uiso   1.00
H67    H     0.67008   0.25254   0.86500   0.00000  Uiso   1.00
H68    H     0.74557   0.26074   0.88467   0.00000  Uiso   1.00
H69    H     0.77568   0.26842   0.73316   0.00000  Uiso   1.00
H70    H     0.69974   0.26198   0.71315   0.00000  Uiso   1.00
H71    H     0.89596   0.35121   0.94310   0.00000  Uiso   1.00
H72    H     0.87726   0.28561   0.89795   0.00000  Uiso   1.00
H73    H     0.76080   0.33851   0.84877   0.00000  Uiso   1.00
H74    H     0.78066   0.40476   0.89287   0.00000  Uiso   1.00
H75    H     0.87798   0.24807   0.75895   0.00000  Uiso   1.00
H76    H     0.91375   0.29190   0.69491   0.00000  Uiso   1.00
H77    H     0.83225   0.39470   0.72171   0.00000  Uiso   1.00
H78    H     0.79914   0.35265   0.78734   0.00000  Uiso   1.00
H79    H     0.89961   0.25560   0.83555   0.00000  Uiso   1.00
H80    H     0.92749   0.19591   0.88056   0.00000  Uiso   1.00
H81    H     0.79979   0.13445   0.89429   0.00000  Uiso   1.00
H82    H     0.77165   0.19487   0.85063   0.00000  Uiso   1.00
C133   C     0.60394   0.86636   0.35623   0.00000  Uiso   1.00
C134   C     0.56181   0.87390   0.34339   0.00000  Uiso   1.00
C135   C     0.53450   0.88956   0.37701   0.00000  Uiso   1.00
C136   C     0.54839   0.89746   0.42448   0.00000  Uiso   1.00
C137   C     0.59214   0.89570   0.43506   0.00000  Uiso   1.00
C138   C     0.61971   0.88044   0.40132   0.00000  Uiso   1.00
H83    H     0.50145   0.89296   0.36626   0.00000  Uiso   1.00
H84    H     0.60422   0.90336   0.47119   0.00000  Uiso   1.00
H85    H     0.65289   0.87640   0.41137   0.00000  Uiso   1.00
C139   C     0.54187   0.82688   0.48993   0.00000  Uiso   1.00
C140   C     0.52769   0.86677   0.50398   0.00000  Uiso   1.00
C141   C     0.52880   0.87557   0.55336   0.00000  Uiso   1.00
C142   C     0.54640   0.84768   0.58651   0.00000  Uiso   1.00
C143   C     0.56568   0.81066   0.57168   0.00000  Uiso   1.00
C144   C     0.56109   0.79963   0.52285   0.00000  Uiso   1.00
C145   C     0.51650   0.90116   0.46589   0.00000  Uiso   1.00
C146   C     0.47099   0.89481   0.44439   0.00000  Uiso   1.00
C147   C     0.45467   0.93096   0.42125   0.00000  Uiso   1.00
C148   C     0.41651   0.92724   0.39554   0.00000  Uiso   1.00
C149   C     0.39374   0.88663   0.39042   0.00000  Uiso   1.00
C150   C     0.40858   0.85103   0.41585   0.00000  Uiso   1.00
C151   C     0.44656   0.85510   0.44280   0.00000  Uiso   1.00
C152   C     0.48525   0.95534   0.51851   0.00000  Uiso   1.00
C153   C     0.47832   0.99760   0.53037   0.00000  Uiso   1.00
C154   C     0.50336   0.03245   0.50981   0.00000  Uiso   1.00
C155   C     0.53923   0.02360   0.48302   0.00000  Uiso   1.00
C156   C     0.54674   0.98105   0.47186   0.00000  Uiso   1.00
C157   C     0.51842   0.94656   0.48737   0.00000  Uiso   1.00
C158   C     0.49155   0.07926   0.51436   0.00000  Uiso   1.00
C159   C     0.36833   0.09079   0.58357   0.00000  Uiso   1.00
C160   C     0.40620   0.10937   0.60463   0.00000  Uiso   1.00
C161   C     0.44600   0.10451   0.58443   0.00000  Uiso   1.00
C162   C     0.44929   0.08088   0.54232   0.00000  Uiso   1.00
C163   C     0.41154   0.06081   0.52223   0.00000  Uiso   1.00
C164   C     0.37182   0.06533   0.54252   0.00000  Uiso   1.00
C165   C     0.47903   0.09852   0.46494   0.00000  Uiso   1.00
C166   C     0.46196   0.13923   0.46328   0.00000  Uiso   1.00
C167   C     0.43844   0.15234   0.42348   0.00000  Uiso   1.00
C168   C     0.43039   0.12460   0.38434   0.00000  Uiso   1.00
C169   C     0.45100   0.08601   0.38382   0.00000  Uiso   1.00
C170   C     0.47502   0.07329   0.42340   0.00000  Uiso   1.00
C171   C     0.54661   0.14492   0.52756   0.00000  Uiso   1.00
C172   C     0.57402   0.16855   0.55910   0.00000  Uiso   1.00
C173   C     0.58445   0.15130   0.60448   0.00000  Uiso   1.00
C174   C     0.57018   0.10820   0.61572   0.00000  Uiso   1.00
C175   C     0.54226   0.08505   0.58464   0.00000  Uiso   1.00
C176   C     0.52826   0.10397   0.54139   0.00000  Uiso   1.00
H86    H     0.53995   0.81769   0.45211   0.00000  Uiso   1.00
H87    H     0.51733   0.90523   0.56705   0.00000  Uiso   1.00
H88    H     0.54601   0.85588   0.62457   0.00000  Uiso   1.00
H89    H     0.57406   0.77037   0.50974   0.00000  Uiso   1.00
H90    H     0.47261   0.96254   0.42194   0.00000  Uiso   1.00
H91    H     0.40498   0.95609   0.37829   0.00000  Uiso   1.00
H92    H     0.39134   0.81915   0.41302   0.00000  Uiso   1.00
H93    H     0.45770   0.82658   0.46117   0.00000  Uiso   1.00
H94    H     0.46255   0.92916   0.53106   0.00000  Uiso   1.00
H95    H     0.45188   0.00298   0.55411   0.00000  Uiso   1.00
H96    H     0.56055   0.05029   0.46884   0.00000  Uiso   1.00
H97    H     0.57357   0.97536   0.44876   0.00000  Uiso   1.00
H98    H     0.40467   0.12969   0.63621   0.00000  Uiso   1.00
H99    H     0.47429   0.12059   0.60136   0.00000  Uiso   1.00
H100   H     0.41312   0.04218   0.48932   0.00000  Uiso   1.00
H101   H     0.34328   0.04953   0.52570   0.00000  Uiso   1.00
H102   H     0.46448   0.15987   0.49484   0.00000  Uiso   1.00
H103   H     0.42367   0.18308   0.42438   0.00000  Uiso   1.00
H104   H     0.44690   0.06469   0.35292   0.00000  Uiso   1.00
H105   H     0.48868   0.04205   0.42224   0.00000  Uiso   1.00
H106   H     0.53865   0.15941   0.49282   0.00000  Uiso   1.00
H107   H     0.58651   0.20126   0.54873   0.00000  Uiso   1.00
H108   H     0.57893   0.09373   0.65024   0.00000  Uiso   1.00
H109   H     0.52964   0.05240   0.59505   0.00000  Uiso   1.00
C177   C     0.36039   0.39707   0.20819   0.00000  Uiso   1.00
C178   C     0.35755   0.38108   0.25591   0.00000  Uiso   1.00
C179   C     0.31996   0.35896   0.27289   0.00000  Uiso   1.00
C180   C     0.28361   0.35272   0.24316   0.00000  Uiso   1.00
C181   C     0.28746   0.36625   0.19471   0.00000  Uiso   1.00
C182   C     0.32478   0.38836   0.17773   0.00000  Uiso   1.00
H110   H     0.38505   0.38561   0.28020   0.00000  Uiso   1.00
H111   H     0.31912   0.34665   0.31004   0.00000  Uiso   1.00
H112   H     0.26080   0.36021   0.16959   0.00000  Uiso   1.00
H113   H     0.32568   0.39977   0.14027   0.00000  Uiso   1.00
C183   C     0.20371   0.39146   0.22254   0.00000  Uiso   1.00
C184   C     0.20422   0.34641   0.22995   0.00000  Uiso   1.00
C185   C     0.17167   0.31968   0.20834   0.00000  Uiso   1.00
C186   C     0.14335   0.33681   0.17513   0.00000  Uiso   1.00
C187   C     0.14581   0.38131   0.16406   0.00000  Uiso   1.00
C188   C     0.17518   0.40865   0.19027   0.00000  Uiso   1.00
C189   C     0.24081   0.33069   0.26165   0.00000  Uiso   1.00
C190   C     0.22883   0.34496   0.31227   0.00000  Uiso   1.00
C191   C     0.19559   0.32124   0.33708   0.00000  Uiso   1.00
C192   C     0.17944   0.33626   0.37977   0.00000  Uiso   1.00
C193   C     0.19608   0.37575   0.39911   0.00000  Uiso   1.00
C194   C     0.23004   0.39888   0.37493   0.00000  Uiso   1.00
C195   C     0.24584   0.38399   0.33203   0.00000  Uiso   1.00
C196   C     0.24309   0.25839   0.21755   0.00000  Uiso   1.00
C197   C     0.25290   0.21514   0.21647   0.00000  Uiso   1.00
C198   C     0.26974   0.19483   0.25720   0.00000  Uiso   1.00
C199   C     0.27277   0.21821   0.30015   0.00000  Uiso   1.00
C200   C     0.26170   0.26087   0.30165   0.00000  Uiso   1.00
C201   C     0.24708   0.28204   0.26024   0.00000  Uiso   1.00
C202   C     0.28428   0.14861   0.25612   0.00000  Uiso   1.00
C203   C     0.18352   0.05442   0.30739   0.00000  Uiso   1.00
C204   C     0.19049   0.05995   0.25781   0.00000  Uiso   1.00
C205   C     0.22084   0.09190   0.24055   0.00000  Uiso   1.00
C206   C     0.24614   0.11772   0.27247   0.00000  Uiso   1.00
C207   C     0.23662   0.11427   0.32185   0.00000  Uiso   1.00
C208   C     0.20564   0.08333   0.33905   0.00000  Uiso   1.00
C209   C     0.32321   0.14350   0.28991   0.00000  Uiso   1.00
C210   C     0.35513   0.17734   0.29619   0.00000  Uiso   1.00
C211   C     0.39061   0.17205   0.32590   0.00000  Uiso   1.00
C212   C     0.39598   0.13205   0.34874   0.00000  Uiso   1.00
C213   C     0.36527   0.09744   0.34017   0.00000  Uiso   1.00
C214   C     0.32954   0.10309   0.31135   0.00000  Uiso   1.00
C215   C     0.30821   0.09242   0.19824   0.00000  Uiso   1.00
C216   C     0.33406   0.08050   0.16100   0.00000  Uiso   1.00
C217   C     0.35655   0.11205   0.13194   0.00000  Uiso   1.00
C218   C     0.34963   0.15571   0.13959   0.00000  Uiso   1.00
C219   C     0.32435   0.16756   0.17741   0.00000  Uiso   1.00
C220   C     0.30356   0.13621   0.20797   0.00000  Uiso   1.00
H114   H     0.22716   0.41341   0.24095   0.00000  Uiso   1.00
H115   H     0.16854   0.28495   0.21618   0.00000  Uiso   1.00
H116   H     0.11943   0.31494   0.15730   0.00000  Uiso   1.00
H117   H     0.17711   0.44359   0.18361   0.00000  Uiso   1.00
H118   H     0.18143   0.29095   0.32220   0.00000  Uiso   1.00
H119   H     0.15331   0.31728   0.39786   0.00000  Uiso   1.00
H120   H     0.24316   0.43000   0.38866   0.00000  Uiso   1.00
H121   H     0.27105   0.40393   0.31358   0.00000  Uiso   1.00
H122   H     0.23293   0.27369   0.18408   0.00000  Uiso   1.00
H123   H     0.24799   0.19756   0.18286   0.00000  Uiso   1.00
H124   H     0.28470   0.20345   0.33312   0.00000  Uiso   1.00
H125   H     0.26543   0.27801   0.33565   0.00000  Uiso   1.00
H126   H     0.17252   0.03897   0.23231   0.00000  Uiso   1.00
H127   H     0.22535   0.09567   0.20169   0.00000  Uiso   1.00
H128   H     0.25450   0.13510   0.34754   0.00000  Uiso   1.00
H129   H     0.19958   0.08044   0.37771   0.00000  Uiso   1.00
H130   H     0.35228   0.20861   0.27815   0.00000  Uiso   1.00
H131   H     0.41447   0.19923   0.33088   0.00000  Uiso   1.00
H132   H     0.36882   0.06590   0.35732   0.00000  Uiso   1.00
H133   H     0.30621   0.07554   0.30610   0.00000  Uiso   1.00
H134   H     0.29322   0.06691   0.22148   0.00000  Uiso   1.00
H135   H     0.33853   0.04624   0.15629   0.00000  Uiso   1.00
H136   H     0.36522   0.18118   0.11675   0.00000  Uiso   1.00
H137   H     0.32246   0.20197   0.18389   0.00000  Uiso   1.00
C221   C     0.60033   0.34022   0.21184   0.00000  Uiso   1.00
C222   C     0.63446   0.34679   0.24477   0.00000  Uiso   1.00
C223   C     0.64828   0.31245   0.27225   0.00000  Uiso   1.00
C224   C     0.62943   0.27024   0.26658   0.00000  Uiso   1.00
C225   C     0.59514   0.26368   0.23409   0.00000  Uiso   1.00
C226   C     0.58079   0.29810   0.20714   0.00000  Uiso   1.00
H138   H     0.65051   0.37904   0.24917   0.00000  Uiso   1.00
H139   H     0.67392   0.31879   0.29865   0.00000  Uiso   1.00
H140   H     0.57892   0.23150   0.22990   0.00000  Uiso   1.00
H141   H     0.55338   0.29211   0.18300   0.00000  Uiso   1.00
C227   C     0.60762   0.15366   0.29262   0.00000  Uiso   1.00
C228   C     0.63197   0.18974   0.27380   0.00000  Uiso   1.00
C229   C     0.64803   0.18710   0.22682   0.00000  Uiso   1.00
C230   C     0.63659   0.15191   0.19798   0.00000  Uiso   1.00
C231   C     0.60830   0.11757   0.21495   0.00000  Uiso   1.00
C232   C     0.59558   0.11825   0.26338   0.00000  Uiso   1.00
C233   C     0.64312   0.23286   0.29931   0.00000  Uiso   1.00
C234   C     0.61907   0.24273   0.34541   0.00000  Uiso   1.00
C235   C     0.63974   0.26906   0.38068   0.00000  Uiso   1.00
C236   C     0.61661   0.28955   0.41500   0.00000  Uiso   1.00
C237   C     0.57172   0.28455   0.41548   0.00000  Uiso   1.00
C238   C     0.55118   0.25553   0.38266   0.00000  Uiso   1.00
C239   C     0.57438   0.23544   0.34797   0.00000  Uiso   1.00
C240   C     0.71945   0.25455   0.27162   0.00000  Uiso   1.00
C241   C     0.76346   0.25266   0.27587   0.00000  Uiso   1.00
C242   C     0.78134   0.22977   0.31422   0.00000  Uiso   1.00
C243   C     0.75372   0.20873   0.34800   0.00000  Uiso   1.00
C244   C     0.70950   0.21051   0.34363   0.00000  Uiso   1.00
C245   C     0.69176   0.23405   0.30588   0.00000  Uiso   1.00
C246   C     0.83021   0.23024   0.31823   0.00000  Uiso   1.00
C247   C     0.87153   0.13012   0.41801   0.00000  Uiso   1.00
C248   C     0.86362   0.12113   0.36912   0.00000  Uiso   1.00
C249   C     0.84924   0.15247   0.33770   0.00000  Uiso   1.00
C250   C     0.84238   0.19400   0.35380   0.00000  Uiso   1.00
C251   C     0.84650   0.20156   0.40352   0.00000  Uiso   1.00
C252   C     0.86110   0.17031   0.43512   0.00000  Uiso   1.00
C253   C     0.84769   0.27423   0.33871   0.00000  Uiso   1.00
C254   C     0.82166   0.30863   0.34410   0.00000  Uiso   1.00
C255   C     0.83548   0.34529   0.37014   0.00000  Uiso   1.00
C256   C     0.87631   0.34917   0.39125   0.00000  Uiso   1.00
C257   C     0.90368   0.31631   0.38303   0.00000  Uiso   1.00
C258   C     0.88948   0.27940   0.35765   0.00000  Uiso   1.00
C259   C     0.82403   0.19163   0.23827   0.00000  Uiso   1.00
C260   C     0.84184   0.17302   0.19874   0.00000  Uiso   1.00
C261   C     0.88558   0.18087   0.18831   0.00000  Uiso   1.00
C262   C     0.90940   0.21193   0.21581   0.00000  Uiso   1.00
C263   C     0.89120   0.23105   0.25524   0.00000  Uiso   1.00
C264   C     0.84880   0.21971   0.26876   0.00000  Uiso   1.00
H142   H     0.59667   0.15323   0.32987   0.00000  Uiso   1.00
H143   H     0.66847   0.21397   0.21167   0.00000  Uiso   1.00
H144   H     0.64786   0.15223   0.16088   0.00000  Uiso   1.00
H145   H     0.57523   0.09127   0.27855   0.00000  Uiso   1.00
H146   H     0.67443   0.27530   0.38039   0.00000  Uiso   1.00
H147   H     0.63380   0.31058   0.44106   0.00000  Uiso   1.00
H148   H     0.51637   0.25036   0.38235   0.00000  Uiso   1.00
H149   H     0.55694   0.21552   0.32109   0.00000  Uiso   1.00
H150   H     0.70701   0.27243   0.24105   0.00000  Uiso   1.00
H151   H     0.78421   0.26907   0.24876   0.00000  Uiso   1.00
H152   H     0.76635   0.19036   0.37809   0.00000  Uiso   1.00
H153   H     0.68866   0.19320   0.37003   0.00000  Uiso   1.00
H154   H     0.86921   0.08936   0.35517   0.00000  Uiso   1.00
H155   H     0.84429   0.14415   0.29994   0.00000  Uiso   1.00
H156   H     0.83929   0.23267   0.41796   0.00000  Uiso   1.00
H157   H     0.86576   0.17795   0.47317   0.00000  Uiso   1.00
H158   H     0.78926   0.30684   0.32943   0.00000  Uiso   1.00
H159   H     0.81382   0.37079   0.37466   0.00000  Uiso   1.00
H160   H     0.93577   0.31852   0.39876   0.00000  Uiso   1.00
H161   H     0.91076   0.25336   0.35489   0.00000  Uiso   1.00
H162   H     0.79051   0.18271   0.24628   0.00000  Uiso   1.00
H163   H     0.82162   0.15097   0.17644   0.00000  Uiso   1.00
H164   H     0.94315   0.21996   0.20800   0.00000  Uiso   1.00
H165   H     0.91135   0.25412   0.27630   0.00000  Uiso   1.00
C265   C     0.59151   0.78764   0.60745   0.00000  Uiso   1.00
C266   C     0.61003   0.81185   0.64589   0.00000  Uiso   1.00
C267   C     0.63103   0.79201   0.68340   0.00000  Uiso   1.00
C268   C     0.63603   0.74731   0.68373   0.00000  Uiso   1.00
C269   C     0.62238   0.72413   0.64265   0.00000  Uiso   1.00
C270   C     0.59960   0.74371   0.60565   0.00000  Uiso   1.00
H166   H     0.60787   0.84678   0.64696   0.00000  Uiso   1.00
H167   H     0.64301   0.81188   0.71342   0.00000  Uiso   1.00
H168   H     0.62882   0.69020   0.63932   0.00000  Uiso   1.00
H169   H     0.58744   0.72400   0.57552   0.00000  Uiso   1.00
C271   C     0.59816   0.66406   0.72879   0.00000  Uiso   1.00
C272   C     0.63771   0.68259   0.74522   0.00000  Uiso   1.00
C273   C     0.65630   0.66295   0.78561   0.00000  Uiso   1.00
C274   C     0.63621   0.62673   0.80864   0.00000  Uiso   1.00
C275   C     0.59552   0.60946   0.79358   0.00000  Uiso   1.00
C276   C     0.57749   0.62834   0.75249   0.00000  Uiso   1.00
C277   C     0.65674   0.72783   0.72893   0.00000  Uiso   1.00
C278   C     0.64304   0.75421   0.77232   0.00000  Uiso   1.00
C279   C     0.66996   0.77345   0.80765   0.00000  Uiso   1.00
C280   C     0.65299   0.79465   0.84658   0.00000  Uiso   1.00
C281   C     0.60876   0.79620   0.85146   0.00000  Uiso   1.00
C282   C     0.58182   0.77648   0.81591   0.00000  Uiso   1.00
C283   C     0.59864   0.75607   0.77727   0.00000  Uiso   1.00
C284   C     0.72783   0.69288   0.71916   0.00000  Uiso   1.00
C285   C     0.77142   0.69560   0.70923   0.00000  Uiso   1.00
C286   C     0.79342   0.73494   0.69482   0.00000  Uiso   1.00
C287   C     0.77060   0.77201   0.69434   0.00000  Uiso   1.00
C288   C     0.72754   0.76966   0.70727   0.00000  Uiso   1.00
C289   C     0.70502   0.73003   0.71932   0.00000  Uiso   1.00
C290   C     0.84127   0.73562   0.68263   0.00000  Uiso   1.00
C291   C     0.89527   0.67723   0.81268   0.00000  Uiso   1.00
C292   C     0.91611   0.67542   0.76838   0.00000  Uiso   1.00
C293   C     0.90042   0.69558   0.72724   0.00000  Uiso   1.00
C294   C     0.86384   0.71875   0.72867   0.00000  Uiso   1.00
C295   C     0.84596   0.72429   0.77427   0.00000  Uiso   1.00
C296   C     0.86084   0.70338   0.81535   0.00000  Uiso   1.00
C297   C     0.85928   0.78138   0.66737   0.00000  Uiso   1.00
C298   C     0.85029   0.79656   0.62058   0.00000  Uiso   1.00
C299   C     0.86647   0.83738   0.60449   0.00000  Uiso   1.00
C300   C     0.89212   0.86501   0.63464   0.00000  Uiso   1.00
C301   C     0.90052   0.84999   0.68165   0.00000  Uiso   1.00
C302   C     0.88438   0.80892   0.69771   0.00000  Uiso   1.00
C303   C     0.89021   0.70478   0.62147   0.00000  Uiso   1.00
C304   C     0.90232   0.67014   0.59476   0.00000  Uiso   1.00
C305   C     0.87323   0.63422   0.58571   0.00000  Uiso   1.00
C306   C     0.83034   0.63762   0.59774   0.00000  Uiso   1.00
C307   C     0.81848   0.67225   0.62477   0.00000  Uiso   1.00
C308   C     0.84897   0.70432   0.64120   0.00000  Uiso   1.00
H170   H     0.58168   0.67838   0.69842   0.00000  Uiso   1.00
H171   H     0.68629   0.67725   0.80073   0.00000  Uiso   1.00
H172   H     0.65206   0.61262   0.83965   0.00000  Uiso   1.00
H173   H     0.54580   0.61648   0.73970   0.00000  Uiso   1.00
H174   H     0.70454   0.77234   0.80512   0.00000  Uiso   1.00
H175   H     0.67471   0.80957   0.87358   0.00000  Uiso   1.00
H176   H     0.54728   0.77791   0.81829   0.00000  Uiso   1.00
H177   H     0.57687   0.74133   0.75024   0.00000  Uiso   1.00
H178   H     0.71199   0.66096   0.72692   0.00000  Uiso   1.00
H179   H     0.78844   0.66632   0.71302   0.00000  Uiso   1.00
H180   H     0.78630   0.80351   0.68426   0.00000  Uiso   1.00
H181   H     0.71141   0.79959   0.70716   0.00000  Uiso   1.00
H182   H     0.94368   0.65629   0.76533   0.00000  Uiso   1.00
H183   H     0.91683   0.69135   0.69345   0.00000  Uiso   1.00
H184   H     0.81889   0.74400   0.77785   0.00000  Uiso   1.00
H185   H     0.84501   0.70695   0.84976   0.00000  Uiso   1.00
H186   H     0.83070   0.77587   0.59617   0.00000  Uiso   1.00
H187   H     0.85966   0.84747   0.56748   0.00000  Uiso   1.00
H188   H     0.91975   0.87063   0.70642   0.00000  Uiso   1.00
H189   H     0.89177   0.79834   0.73440   0.00000  Uiso   1.00
H190   H     0.91368   0.73190   0.62844   0.00000  Uiso   1.00
H191   H     0.93514   0.67048   0.58206   0.00000  Uiso   1.00
H192   H     0.80617   0.61177   0.58841   0.00000  Uiso   1.00
H193   H     0.78487   0.67288   0.63390   0.00000  Uiso   1.00
C309   C     0.37079   0.91347   0.79419   0.00000  Uiso   1.00
C310   C     0.33381   0.93189   0.80944   0.00000  Uiso   1.00
C311   C     0.29437   0.92177   0.78728   0.00000  Uiso   1.00
C312   C     0.29001   0.89273   0.74897   0.00000  Uiso   1.00
C313   C     0.32790   0.87886   0.72978   0.00000  Uiso   1.00
C314   C     0.36747   0.88902   0.75178   0.00000  Uiso   1.00
H194   H     0.33490   0.95215   0.84127   0.00000  Uiso   1.00
H195   H     0.26660   0.93532   0.80251   0.00000  Uiso   1.00
H196   H     0.32634   0.85748   0.69884   0.00000  Uiso   1.00
H197   H     0.39579   0.87620   0.73674   0.00000  Uiso   1.00
C315   C     0.25508   0.89881   0.64637   0.00000  Uiso   1.00
C316   C     0.22981   0.87994   0.68361   0.00000  Uiso   1.00
C317   C     0.18707   0.86592   0.67291   0.00000  Uiso   1.00
C318   C     0.17070   0.86921   0.62635   0.00000  Uiso   1.00
C319   C     0.19646   0.88682   0.58847   0.00000  Uiso   1.00
C320   C     0.23860   0.90234   0.59950   0.00000  Uiso   1.00
C321   C     0.24619   0.86967   0.73458   0.00000  Uiso   1.00
C322   C     0.21282   0.88273   0.77086   0.00000  Uiso   1.00
C323   C     0.19876   0.85740   0.81081   0.00000  Uiso   1.00
C324   C     0.17491   0.87470   0.84704   0.00000  Uiso   1.00
C325   C     0.16420   0.91794   0.84468   0.00000  Uiso   1.00
C326   C     0.17496   0.94198   0.80235   0.00000  Uiso   1.00
C327   C     0.19863   0.92465   0.76625   0.00000  Uiso   1.00
C328   C     0.24698   0.79349   0.69785   0.00000  Uiso   1.00
C329   C     0.26147   0.75203   0.69798   0.00000  Uiso   1.00
C330   C     0.28451   0.73625   0.73726   0.00000  Uiso   1.00
C331   C     0.29015   0.76285   0.77759   0.00000  Uiso   1.00
C332   C     0.27579   0.80438   0.77739   0.00000  Uiso   1.00
C333   C     0.25471   0.82104   0.73702   0.00000  Uiso   1.00
C334   C     0.30340   0.69212   0.73501   0.00000  Uiso   1.00
C335   C     0.21564   0.59771   0.66086   0.00000  Uiso   1.00
C336   C     0.25911   0.59106   0.66694   0.00000  Uiso   1.00
C337   C     0.28603   0.62009   0.69281   0.00000  Uiso   1.00
C338   C     0.27104   0.65732   0.71289   0.00000  Uiso   1.00
C339   C     0.22680   0.66123   0.71124   0.00000  Uiso   1.00
C340   C     0.19948   0.63200   0.68544   0.00000  Uiso   1.00
C341   C     0.31781   0.67622   0.78481   0.00000  Uiso   1.00
C342   C     0.35715   0.69272   0.80444   0.00000  Uiso   1.00
C343   C     0.37717   0.67003   0.84085   0.00000  Uiso   1.00
C344   C     0.35805   0.63046   0.85884   0.00000  Uiso   1.00
C345   C     0.31543   0.61867   0.84545   0.00000  Uiso   1.00
C346   C     0.29563   0.64124   0.80876   0.00000  Uiso   1.00
C347   C     0.37418   0.66431   0.70808   0.00000  Uiso   1.00
C348   C     0.40313   0.65623   0.67225   0.00000  Uiso   1.00
C349   C     0.40106   0.67648   0.62668   0.00000  Uiso   1.00
C350   C     0.37251   0.70892   0.62068   0.00000  Uiso   1.00
C351   C     0.34406   0.71747   0.65709   0.00000  Uiso   1.00
C352   C     0.34243   0.69353   0.70055   0.00000  Uiso   1.00
H198   H     0.28813   0.91078   0.65345   0.00000  Uiso   1.00
H199   H     0.16651   0.85169   0.70149   0.00000  Uiso   1.00
H200   H     0.13737   0.85820   0.61933   0.00000  Uiso   1.00
H201   H     0.25932   0.91657   0.57107   0.00000  Uiso   1.00
H202   H     0.20700   0.82395   0.81475   0.00000  Uiso   1.00
H203   H     0.16521   0.85415   0.87804   0.00000  Uiso   1.00
H204   H     0.16651   0.97538   0.79841   0.00000  Uiso   1.00
H205   H     0.20775   0.94470   0.73466   0.00000  Uiso   1.00
H206   H     0.23018   0.80408   0.66572   0.00000  Uiso   1.00
H207   H     0.25457   0.73207   0.66642   0.00000  Uiso   1.00
H208   H     0.30658   0.75173   0.80977   0.00000  Uiso   1.00
H209   H     0.28260   0.82452   0.80885   0.00000  Uiso   1.00
H210   H     0.27215   0.56316   0.65067   0.00000  Uiso   1.00
H211   H     0.31959   0.61375   0.69604   0.00000  Uiso   1.00
H212   H     0.21317   0.68792   0.72925   0.00000  Uiso   1.00
H213   H     0.16550   0.63708   0.68298   0.00000  Uiso   1.00
H214   H     0.37405   0.72146   0.78826   0.00000  Uiso   1.00
H215   H     0.40936   0.68144   0.85241   0.00000  Uiso   1.00
H216   H     0.29827   0.59022   0.86192   0.00000  Uiso   1.00
H217   H     0.26359   0.62966   0.79686   0.00000  Uiso   1.00
H218   H     0.37572   0.64570   0.74166   0.00000  Uiso   1.00
H219   H     0.42569   0.63168   0.67893   0.00000  Uiso   1.00
H220   H     0.37152   0.72710   0.58665   0.00000  Uiso   1.00
H221   H     0.32202   0.74239   0.65011   0.00000  Uiso   1.00
C353   C     0.37255   0.83308   0.10275   0.00000  Uiso   1.00
C354   C     0.38970   0.83919   0.14930   0.00000  Uiso   1.00
C355   C     0.36320   0.84235   0.18898   0.00000  Uiso   1.00
C356   C     0.31877   0.84035   0.18307   0.00000  Uiso   1.00
C357   C     0.30153   0.83099   0.13707   0.00000  Uiso   1.00
C358   C     0.32784   0.82750   0.09755   0.00000  Uiso   1.00
H222   H     0.42427   0.84300   0.15466   0.00000  Uiso   1.00
H223   H     0.37792   0.84742   0.22440   0.00000  Uiso   1.00
H224   H     0.26690   0.82718   0.13207   0.00000  Uiso   1.00
H225   H     0.31345   0.82061   0.06226   0.00000  Uiso   1.00
C359   C     0.27052   0.91129   0.17851   0.00000  Uiso   1.00
C360   C     0.25500   0.87688   0.20890   0.00000  Uiso   1.00
C361   C     0.21232   0.87592   0.22357   0.00000  Uiso   1.00
C362   C     0.18473   0.90487   0.20339   0.00000  Uiso   1.00
C363   C     0.19956   0.93667   0.16954   0.00000  Uiso   1.00
C364   C     0.24352   0.94069   0.15935   0.00000  Uiso   1.00
C365   C     0.28673   0.84401   0.22463   0.00000  Uiso   1.00
C366   C     0.30822   0.86035   0.27148   0.00000  Uiso   1.00
C367   C     0.30012   0.83897   0.31589   0.00000  Uiso   1.00
C368   C     0.32563   0.84892   0.35625   0.00000  Uiso   1.00
C369   C     0.35962   0.88113   0.35334   0.00000  Uiso   1.00
C370   C     0.36386   0.90626   0.31059   0.00000  Uiso   1.00
C371   C     0.33831   0.89630   0.27045   0.00000  Uiso   1.00
C372   C     0.23109   0.77670   0.21680   0.00000  Uiso   1.00
C373   C     0.22291   0.73161   0.21951   0.00000  Uiso   1.00
C374   C     0.25472   0.70457   0.23397   0.00000  Uiso   1.00
C375   C     0.29467   0.72415   0.24757   0.00000  Uiso   1.00
C376   C     0.30236   0.76886   0.24625   0.00000  Uiso   1.00
C377   C     0.27091   0.79604   0.23069   0.00000  Uiso   1.00
C378   C     0.24610   0.65513   0.23498   0.00000  Uiso   1.00
C379   C     0.14799   0.60636   0.33516   0.00000  Uiso   1.00
C380   C     0.15648   0.58279   0.29386   0.00000  Uiso   1.00
C381   C     0.18394   0.60030   0.25833   0.00000  Uiso   1.00
C382   C     0.20453   0.64190   0.26274   0.00000  Uiso   1.00
C383   C     0.19112   0.66766   0.30008   0.00000  Uiso   1.00
C384   C     0.16298   0.65042   0.33527   0.00000  Uiso   1.00
C385   C     0.28238   0.63507   0.26377   0.00000  Uiso   1.00
C386   C     0.32147   0.62797   0.24206   0.00000  Uiso   1.00
C387   C     0.35556   0.61355   0.26912   0.00000  Uiso   1.00
C388   C     0.35147   0.60534   0.31887   0.00000  Uiso   1.00
C389   C     0.31215   0.61163   0.34032   0.00000  Uiso   1.00
C390   C     0.27849   0.62647   0.31341   0.00000  Uiso   1.00
C391   C     0.24688   0.59252   0.17728   0.00000  Uiso   1.00
C392   C     0.23325   0.57214   0.13491   0.00000  Uiso   1.00
C393   C     0.21418   0.59528   0.09744   0.00000  Uiso   1.00
C394   C     0.21396   0.64036   0.10176   0.00000  Uiso   1.00
C395   C     0.22768   0.66066   0.14427   0.00000  Uiso   1.00
C396   C     0.24180   0.63674   0.18391   0.00000  Uiso   1.00
H226   H     0.30403   0.91449   0.16806   0.00000  Uiso   1.00
H227   H     0.19984   0.85204   0.25030   0.00000  Uiso   1.00
H228   H     0.15120   0.90223   0.21397   0.00000  Uiso   1.00
H229   H     0.25636   0.96575   0.13413   0.00000  Uiso   1.00
H230   H     0.27471   0.81294   0.31877   0.00000  Uiso   1.00
H231   H     0.31964   0.83064   0.38984   0.00000  Uiso   1.00
H232   H     0.38901   0.93251   0.30748   0.00000  Uiso   1.00
H233   H     0.34336   0.91564   0.23745   0.00000  Uiso   1.00
H234   H     0.20590   0.79612   0.20330   0.00000  Uiso   1.00
H235   H     0.19099   0.71760   0.21010   0.00000  Uiso   1.00
H236   H     0.32048   0.70478   0.25926   0.00000  Uiso   1.00
H237   H     0.33397   0.78289   0.25679   0.00000  Uiso   1.00
H238   H     0.14392   0.54914   0.29038   0.00000  Uiso   1.00
H239   H     0.19099   0.57980   0.22838   0.00000  Uiso   1.00
H240   H     0.20461   0.70099   0.30376   0.00000  Uiso   1.00
H241   H     0.15472   0.67127   0.36449   0.00000  Uiso   1.00
H242   H     0.32574   0.63449   0.20352   0.00000  Uiso   1.00
H243   H     0.38559   0.60875   0.25119   0.00000  Uiso   1.00
H244   H     0.30815   0.60623   0.37907   0.00000  Uiso   1.00
H245   H     0.24922   0.63190   0.33233   0.00000  Uiso   1.00
H246   H     0.26022   0.57323   0.20618   0.00000  Uiso   1.00
H247   H     0.23523   0.53724   0.13232   0.00000  Uiso   1.00
H248   H     0.20191   0.65984   0.07220   0.00000  Uiso   1.00
H249   H     0.22603   0.69559   0.14636   0.00000  Uiso   1.00
C397   C     0.61800   0.64072   0.17448   0.00000  Uiso   1.00
C398   C     0.60262   0.68073   0.18559   0.00000  Uiso   1.00
C399   C     0.62693   0.71077   0.21342   0.00000  Uiso   1.00
C400   C     0.66711   0.70164   0.23179   0.00000  Uiso   1.00
C401   C     0.68526   0.66521   0.21356   0.00000  Uiso   1.00
C402   C     0.66110   0.63515   0.18573   0.00000  Uiso   1.00
H250   H     0.57073   0.68821   0.17372   0.00000  Uiso   1.00
H251   H     0.61331   0.74105   0.22170   0.00000  Uiso   1.00
H252   H     0.71804   0.65907   0.22339   0.00000  Uiso   1.00
H253   H     0.67538   0.60573   0.17536   0.00000  Uiso   1.00
C403   C     0.66763   0.65130   0.31730   0.00000  Uiso   1.00
C404   C     0.68173   0.69528   0.32017   0.00000  Uiso   1.00
C405   C     0.68083   0.71409   0.36604   0.00000  Uiso   1.00
C406   C     0.65895   0.69287   0.40421   0.00000  Uiso   1.00
C407   C     0.63834   0.65132   0.39813   0.00000  Uiso   1.00
C408   C     0.64649   0.62959   0.35559   0.00000  Uiso   1.00
C409   C     0.68946   0.72518   0.27486   0.00000  Uiso   1.00
C410   C     0.66767   0.76618   0.28820   0.00000  Uiso   1.00
C411   C     0.68943   0.80713   0.29302   0.00000  Uiso   1.00
C412   C     0.66951   0.84136   0.31318   0.00000  Uiso   1.00
C413   C     0.62693   0.83548   0.32784   0.00000  Uiso   1.00
C414   C     0.60441   0.79491   0.32099   0.00000  Uiso   1.00
C415   C     0.62465   0.76070   0.30247   0.00000  Uiso   1.00
C416   C     0.77057   0.72319   0.29014   0.00000  Uiso   1.00
C417   C     0.81274   0.73427   0.27592   0.00000  Uiso   1.00
C418   C     0.82174   0.75934   0.23408   0.00000  Uiso   1.00
C419   C     0.78720   0.77227   0.20632   0.00000  Uiso   1.00
C420   C     0.74528   0.76073   0.22000   0.00000  Uiso   1.00
C421   C     0.73634   0.73619   0.26227   0.00000  Uiso   1.00
C422   C     0.86752   0.76888   0.21535   0.00000  Uiso   1.00
C423   C     0.96904   0.80110   0.32034   0.00000  Uiso   1.00
C424   C     0.97693   0.77714   0.27935   0.00000  Uiso   1.00
C425   C     0.94377   0.76348   0.24804   0.00000  Uiso   1.00
C426   C     0.90165   0.77375   0.25581   0.00000  Uiso   1.00
C427   C     0.89331   0.79430   0.29916   0.00000  Uiso   1.00
C428   C     0.92634   0.80749   0.33100   0.00000  Uiso   1.00
C429   C     0.87019   0.81243   0.18655   0.00000  Uiso   1.00
C430   C     0.86208   0.81424   0.13659   0.00000  Uiso   1.00
C431   C     0.86833   0.85301   0.11018   0.00000  Uiso   1.00
C432   C     0.88237   0.89162   0.13310   0.00000  Uiso   1.00
C433   C     0.88644   0.89054   0.18363   0.00000  Uiso   1.00
C434   C     0.88044   0.85178   0.20972   0.00000  Uiso   1.00
C435   C     0.90985   0.73872   0.14730   0.00000  Uiso   1.00
C436   C     0.91904   0.70602   0.11620   0.00000  Uiso   1.00
C437   C     0.89621   0.66517   0.11870   0.00000  Uiso   1.00
C438   C     0.86464   0.65787   0.15397   0.00000  Uiso   1.00
C439   C     0.85566   0.69069   0.18525   0.00000  Uiso   1.00
C440   C     0.87751   0.73184   0.18197   0.00000  Uiso   1.00
H254   H     0.67024   0.63364   0.28402   0.00000  Uiso   1.00
H255   H     0.69473   0.74713   0.37118   0.00000  Uiso   1.00
H256   H     0.65626   0.70960   0.43822   0.00000  Uiso   1.00
H257   H     0.63295   0.59642   0.35049   0.00000  Uiso   1.00
H258   H     0.72289   0.81258   0.28271   0.00000  Uiso   1.00
H259   H     0.68764   0.87254   0.31801   0.00000  Uiso   1.00
H260   H     0.57133   0.78963   0.33283   0.00000  Uiso   1.00
H261   H     0.60729   0.72880   0.30125   0.00000  Uiso   1.00
H262   H     0.76460   0.70377   0.32296   0.00000  Uiso   1.00
H263   H     0.83878   0.72273   0.29777   0.00000  Uiso   1.00
H264   H     0.79273   0.79136   0.17325   0.00000  Uiso   1.00
H265   H     0.71902   0.77072   0.19737   0.00000  Uiso   1.00
H266   H     0.00948   0.76977   0.27115   0.00000  Uiso   1.00
H267   H     0.95176   0.74556   0.21636   0.00000  Uiso   1.00
H268   H     0.86081   0.80160   0.30769   0.00000  Uiso   1.00
H269   H     0.91895   0.82508   0.36324   0.00000  Uiso   1.00
H270   H     0.85179   0.78480   0.11728   0.00000  Uiso   1.00
H271   H     0.86349   0.85274   0.07115   0.00000  Uiso   1.00
H272   H     0.89479   0.92043   0.20301   0.00000  Uiso   1.00
H273   H     0.88486   0.85274   0.24872   0.00000  Uiso   1.00
H274   H     0.92767   0.77028   0.14368   0.00000  Uiso   1.00
H275   H     0.94357   0.71276   0.08889   0.00000  Uiso   1.00
H276   H     0.83086   0.68371   0.21216   0.00000  Uiso   1.00
C441   C     0.17601   0.39735   0.43936   0.00000  Uiso   1.00
C442   C     0.20064   0.42353   0.47173   0.00000  Uiso   1.00
C443   C     0.18188   0.45377   0.49959   0.00000  Uiso   1.00
C444   C     0.13805   0.45940   0.49564   0.00000  Uiso   1.00
C445   C     0.11277   0.42819   0.46949   0.00000  Uiso   1.00
C446   C     0.13135   0.39772   0.44174   0.00000  Uiso   1.00
H277   H     0.23515   0.42146   0.47402   0.00000  Uiso   1.00
H278   H     0.20252   0.47397   0.52330   0.00000  Uiso   1.00
H279   H     0.07805   0.42869   0.46880   0.00000  Uiso   1.00
H280   H     0.11089   0.37608   0.41922   0.00000  Uiso   1.00
C447   C     0.10970   0.51473   0.41956   0.00000  Uiso   1.00
C448   C     0.12153   0.53138   0.46493   0.00000  Uiso   1.00
C449   C     0.13354   0.57593   0.46697   0.00000  Uiso   1.00
C450   C     0.13925   0.60109   0.42501   0.00000  Uiso   1.00
C451   C     0.13164   0.58323   0.37915   0.00000  Uiso   1.00
C452   C     0.11420   0.53998   0.37772   0.00000  Uiso   1.00
C453   C     0.11881   0.50157   0.51065   0.00000  Uiso   1.00
C454   C     0.14374   0.52420   0.55225   0.00000  Uiso   1.00
C455   C     0.12600   0.52904   0.59783   0.00000  Uiso   1.00
C456   C     0.14856   0.55239   0.63388   0.00000  Uiso   1.00
C457   C     0.19001   0.57098   0.62552   0.00000  Uiso   1.00
C458   C     0.20823   0.56553   0.58014   0.00000  Uiso   1.00
C459   C     0.18538   0.54303   0.54407   0.00000  Uiso   1.00
C460   C     0.04133   0.51959   0.50412   0.00000  Uiso   1.00
C461   C     0.99801   0.51011   0.51222   0.00000  Uiso   1.00
C462   C     0.98336   0.47422   0.54087   0.00000  Uiso   1.00
C463   C     0.01345   0.44835   0.56157   0.00000  Uiso   1.00
C464   C     0.05702   0.45739   0.55256   0.00000  Uiso   1.00
C465   C     0.07145   0.49269   0.52307   0.00000  Uiso   1.00
C466   C     0.93475   0.46490   0.54565   0.00000  Uiso   1.00
C467   C     0.88830   0.59236   0.57046   0.00000  Uiso   1.00
C468   C     0.86630   0.56407   0.53817   0.00000  Uiso   1.00
C469   C     0.88051   0.52324   0.52921   0.00000  Uiso   1.00
C470   C     0.91666   0.50919   0.55280   0.00000  Uiso   1.00
C471   C     0.93882   0.53785   0.58496   0.00000  Uiso   1.00
C472   C     0.92514   0.57857   0.59347   0.00000  Uiso   1.00
C473   C     0.92350   0.43434   0.58908   0.00000  Uiso   1.00
C474   C     0.92457   0.38925   0.58460   0.00000  Uiso   1.00
C475   C     0.91125   0.36069   0.62195   0.00000  Uiso   1.00
C476   C     0.89696   0.37631   0.66569   0.00000  Uiso   1.00
C477   C     0.89898   0.42147   0.67133   0.00000  Uiso   1.00
C478   C     0.91156   0.44985   0.63370   0.00000  Uiso   1.00
C479   C     0.87540   0.42261   0.49868   0.00000  Uiso   1.00
C480   C     0.86132   0.39495   0.46170   0.00000  Uiso   1.00
C481   C     0.88933   0.38432   0.42527   0.00000  Uiso   1.00
C482   C     0.93077   0.40480   0.42507   0.00000  Uiso   1.00
C483   C     0.94454   0.43297   0.46170   0.00000  Uiso   1.00
C484   C     0.91772   0.44117   0.50010   0.00000  Uiso   1.00
H281   H     0.09720   0.48110   0.41606   0.00000  Uiso   1.00
H282   H     0.13963   0.59160   0.50151   0.00000  Uiso   1.00
H283   H     0.15110   0.63495   0.42858   0.00000  Uiso   1.00
H284   H     0.10468   0.52511   0.34352   0.00000  Uiso   1.00
H285   H     0.09374   0.51516   0.60564   0.00000  Uiso   1.00
H286   H     0.13363   0.55594   0.66882   0.00000  Uiso   1.00
H287   H     0.24019   0.58036   0.57243   0.00000  Uiso   1.00
H288   H     0.19982   0.54151   0.50859   0.00000  Uiso   1.00
H289   H     0.05132   0.54795   0.48200   0.00000  Uiso   1.00
H290   H     0.97523   0.53085   0.49566   0.00000  Uiso   1.00
H291   H     0.00327   0.42055   0.58452   0.00000  Uiso   1.00
H292   H     0.07990   0.43624   0.56825   0.00000  Uiso   1.00
H293   H     0.83791   0.57397   0.51925   0.00000  Uiso   1.00
H294   H     0.86283   0.50252   0.50326   0.00000  Uiso   1.00
H295   H     0.96756   0.52827   0.60340   0.00000  Uiso   1.00
H296   H     0.94272   0.59964   0.61918   0.00000  Uiso   1.00
H297   H     0.93481   0.37589   0.55086   0.00000  Uiso   1.00
H298   H     0.91088   0.32587   0.61630   0.00000  Uiso   1.00
H299   H     0.89026   0.43499   0.70559   0.00000  Uiso   1.00
H300   H     0.91108   0.48449   0.63965   0.00000  Uiso   1.00
H301   H     0.85364   0.42817   0.52799   0.00000  Uiso   1.00
H302   H     0.82875   0.37976   0.46250   0.00000  Uiso   1.00
H303   H     0.95287   0.39821   0.39647   0.00000  Uiso   1.00
H304   H     0.97735   0.44732   0.46057   0.00000  Uiso   1.00
C485   C     0.06775   0.11631   0.58978   0.00000  Uiso   1.00
C486   C     0.04016   0.09379   0.62281   0.00000  Uiso   1.00
C487   C     0.00772   0.06334   0.60734   0.00000  Uiso   1.00
C488   C     0.00272   0.05400   0.55837   0.00000  Uiso   1.00
C489   C     0.02842   0.07896   0.52520   0.00000  Uiso   1.00
C490   C     0.06017   0.10949   0.54033   0.00000  Uiso   1.00
H305   H     0.04419   0.09952   0.66138   0.00000  Uiso   1.00
H306   H     0.98717   0.04623   0.63414   0.00000  Uiso   1.00
H307   H     0.02465   0.07326   0.48665   0.00000  Uiso   1.00
H308   H     0.08062   0.12676   0.51356   0.00000  Uiso   1.00
C491   C     0.95118   0.05074   0.45478   0.00000  Uiso   1.00
C492   C     0.94297   0.04295   0.50391   0.00000  Uiso   1.00
C493   C     0.91010   0.06424   0.52502   0.00000  Uiso   1.00
C494   C     0.88579   0.09180   0.49782   0.00000  Uiso   1.00
C495   C     0.89391   0.09918   0.44853   0.00000  Uiso   1.00
C496   C     0.92693   0.07810   0.42754   0.00000  Uiso   1.00
C497   C     0.97278   0.01763   0.53609   0.00000  Uiso   1.00
C498   C     0.94883   0.98390   0.56933   0.00000  Uiso   1.00
C499   C     0.90713   0.96749   0.55750   0.00000  Uiso   1.00
C500   C     0.88818   0.93049   0.58037   0.00000  Uiso   1.00
C501   C     0.91042   0.90758   0.61549   0.00000  Uiso   1.00
C502   C     0.95149   0.92504   0.62882   0.00000  Uiso   1.00
C503   C     0.97031   0.96227   0.60609   0.00000  Uiso   1.00
C504   C     0.98714   0.96585   0.46702   0.00000  Uiso   1.00
C505   C     0.01532   0.94353   0.44002   0.00000  Uiso   1.00
C506   C     0.05827   0.94157   0.45411   0.00000  Uiso   1.00
C507   C     0.07151   0.96221   0.49683   0.00000  Uiso   1.00
C508   C     0.04383   0.98566   0.52289   0.00000  Uiso   1.00
C509   C     0.00162   0.98930   0.50750   0.00000  Uiso   1.00
C510   C     0.09016   0.91915   0.42231   0.00000  Uiso   1.00
C511   C     0.00450   0.82382   0.34809   0.00000  Uiso   1.00
C512   C     0.03751   0.84739   0.32284   0.00000  Uiso   1.00
C513   C     0.06683   0.87603   0.34655   0.00000  Uiso   1.00
C514   C     0.06462   0.88174   0.39645   0.00000  Uiso   1.00
C515   C     0.03382   0.85520   0.42216   0.00000  Uiso   1.00
C516   C     0.00410   0.82699   0.39852   0.00000  Uiso   1.00
C517   C     0.12540   0.90459   0.45685   0.00000  Uiso   1.00
C518   C     0.15911   0.93480   0.47040   0.00000  Uiso   1.00
C519   C     0.18452   0.92785   0.51089   0.00000  Uiso   1.00
C520   C     0.17689   0.89035   0.53973   0.00000  Uiso   1.00
C521   C     0.14669   0.85798   0.52294   0.00000  Uiso   1.00
C522   C     0.12153   0.86491   0.48219   0.00000  Uiso   1.00
C523   C     0.14687   0.94414   0.36016   0.00000  Uiso   1.00
C524   C     0.16879   0.97610   0.33176   0.00000  Uiso   1.00
C525   C     0.15541   0.01829   0.32939   0.00000  Uiso   1.00
C526   C     0.11793   0.02671   0.35329   0.00000  Uiso   1.00
C527   C     0.09551   0.99438   0.38072   0.00000  Uiso   1.00
C528   C     0.11045   0.95308   0.38621   0.00000  Uiso   1.00
H309   H     0.97719   0.03616   0.43702   0.00000  Uiso   1.00
H310   H     0.90381   0.05972   0.56351   0.00000  Uiso   1.00
H311   H     0.86038   0.10775   0.51521   0.00000  Uiso   1.00
H312   H     0.93481   0.08413   0.38966   0.00000  Uiso   1.00
H313   H     0.88924   0.98294   0.52897   0.00000  Uiso   1.00
H314   H     0.85571   0.91896   0.56989   0.00000  Uiso   1.00
H315   H     0.96996   0.90837   0.65592   0.00000  Uiso   1.00
H316   H     0.00299   0.97345   0.61608   0.00000  Uiso   1.00
H317   H     0.95376   0.96541   0.45553   0.00000  Uiso   1.00
H318   H     0.00322   0.92784   0.40720   0.00000  Uiso   1.00
H319   H     0.10409   0.96122   0.51037   0.00000  Uiso   1.00
H320   H     0.05607   0.00178   0.55539   0.00000  Uiso   1.00
H321   H     0.03897   0.84524   0.28365   0.00000  Uiso   1.00
H322   H     0.09042   0.89530   0.32498   0.00000  Uiso   1.00
H323   H     0.03116   0.85839   0.46111   0.00000  Uiso   1.00
H324   H     0.97974   0.80809   0.41947   0.00000  Uiso   1.00
H325   H     0.16449   0.96544   0.45055   0.00000  Uiso   1.00
H326   H     0.20874   0.95315   0.52166   0.00000  Uiso   1.00
H327   H     0.14183   0.82721   0.54271   0.00000  Uiso   1.00
H328   H     0.09774   0.83927   0.47139   0.00000  Uiso   1.00
H329   H     0.15930   0.91226   0.36354   0.00000  Uiso   1.00
H330   H     0.19759   0.96865   0.31287   0.00000  Uiso   1.00
H331   H     0.10654   0.05910   0.35130   0.00000  Uiso   1.00
H332   H     0.06679   0.00247   0.39924   0.00000  Uiso   1.00
C529   C     0.14591   0.40262   0.87688   0.00000  Uiso   1.00
C530   C     0.16631   0.44322   0.88857   0.00000  Uiso   1.00
C531   C     0.14933   0.46921   0.92274   0.00000  Uiso   1.00
C532   C     0.11184   0.45516   0.94734   0.00000  Uiso   1.00
C533   C     0.08798   0.41818   0.93022   0.00000  Uiso   1.00
C534   C     0.10466   0.39238   0.89553   0.00000  Uiso   1.00
H333   H     0.19714   0.45408   0.87297   0.00000  Uiso   1.00
H334   H     0.16681   0.49994   0.93146   0.00000  Uiso   1.00
H335   H     0.05667   0.40857   0.94551   0.00000  Uiso   1.00
H336   H     0.08579   0.36312   0.88433   0.00000  Uiso   1.00
C535   C     0.17304   0.50213   0.02014   0.00000  Uiso   1.00
C536   C     0.13172   0.51381   0.00811   0.00000  Uiso   1.00
C537   C     0.12153   0.55589   0.01799   0.00000  Uiso   1.00
C538   C     0.15023   0.58396   0.04344   0.00000  Uiso   1.00
C539   C     0.18986   0.57078   0.05944   0.00000  Uiso   1.00
C540   C     0.20181   0.53018   0.04487   0.00000  Uiso   1.00
C541   C     0.09818   0.47728   0.99304   0.00000  Uiso   1.00
C542   C     0.09988   0.44647   0.03780   0.00000  Uiso   1.00
C543   C     0.11092   0.40359   0.03583   0.00000  Uiso   1.00
C544   C     0.12214   0.38097   0.07753   0.00000  Uiso   1.00
C545   C     0.12312   0.40063   0.12276   0.00000  Uiso   1.00
C546   C     0.10846   0.44228   0.12543   0.00000  Uiso   1.00
C547   C     0.09723   0.46463   0.08385   0.00000  Uiso   1.00
C548   C     0.04525   0.51496   0.94033   0.00000  Uiso   1.00
C549   C     0.00619   0.53271   0.93181   0.00000  Uiso   1.00
C550   C     0.97556   0.53217   0.96818   0.00000  Uiso   1.00
C551   C     0.98392   0.51010   0.01154   0.00000  Uiso   1.00
C552   C     0.02209   0.49100   0.01934   0.00000  Uiso   1.00
C553   C     0.05415   0.49437   0.98438   0.00000  Uiso   1.00
C554   C     0.93136   0.55005   0.96319   0.00000  Uiso   1.00
C555   C     0.90500   0.63201   0.08315   0.00000  Uiso   1.00
C556   C     0.87159   0.60618   0.06156   0.00000  Uiso   1.00
C557   C     0.87978   0.57823   0.02448   0.00000  Uiso   1.00
C558   C     0.92162   0.57495   0.00858   0.00000  Uiso   1.00
C559   C     0.95511   0.60001   0.03102   0.00000  Uiso   1.00
C560   C     0.94701   0.62797   0.06791   0.00000  Uiso   1.00
C561   C     0.90248   0.50860   0.95406   0.00000  Uiso   1.00
C562   C     0.89885   0.49387   0.90649   0.00000  Uiso   1.00
C563   C     0.87711   0.45421   0.89638   0.00000  Uiso   1.00
C564   C     0.85944   0.42754   0.93378   0.00000  Uiso   1.00
C565   C     0.86302   0.44192   0.98123   0.00000  Uiso   1.00
C566   C     0.88421   0.48226   0.99120   0.00000  Uiso   1.00
C567   C     0.88273   0.58815   0.90674   0.00000  Uiso   1.00
C568   C     0.87357   0.61958   0.87260   0.00000  Uiso   1.00
C569   C     0.90636   0.64805   0.85330   0.00000  Uiso   1.00
C570   C     0.94804   0.64534   0.87108   0.00000  Uiso   1.00
C571   C     0.95692   0.61450   0.90653   0.00000  Uiso   1.00
C572   C     0.92474   0.58421   0.92339   0.00000  Uiso   1.00
H337   H     0.18201   0.46967   0.01222   0.00000  Uiso   1.00
H338   H     0.09023   0.56648   0.00810   0.00000  Uiso   1.00
H339   H     0.14034   0.61557   0.05346   0.00000  Uiso   1.00
H340   H     0.23323   0.51977   0.05453   0.00000  Uiso   1.00
H341   H     0.11300   0.38753   0.00139   0.00000  Uiso   1.00
H342   H     0.13279   0.34845   0.07417   0.00000  Uiso   1.00
H343   H     0.08873   0.49793   0.08727   0.00000  Uiso   1.00
H344   H     0.06910   0.51709   0.91182   0.00000  Uiso   1.00
H345   H     0.00018   0.54706   0.89643   0.00000  Uiso   1.00
H346   H     0.96009   0.50769   0.04004   0.00000  Uiso   1.00
H347   H     0.02638   0.47341   0.05319   0.00000  Uiso   1.00
H348   H     0.83867   0.60901   0.07261   0.00000  Uiso   1.00
H349   H     0.85305   0.55966   0.00722   0.00000  Uiso   1.00
H350   H     0.98792   0.59821   0.01903   0.00000  Uiso   1.00
H351   H     0.97361   0.64706   0.08481   0.00000  Uiso   1.00
H352   H     0.91361   0.51341   0.87710   0.00000  Uiso   1.00
H353   H     0.87469   0.44306   0.85927   0.00000  Uiso   1.00
H354   H     0.84959   0.42156   0.01072   0.00000  Uiso   1.00
H355   H     0.88696   0.49259   0.02858   0.00000  Uiso   1.00
H356   H     0.85665   0.56607   0.92044   0.00000  Uiso   1.00
H357   H     0.84076   0.62146   0.85982   0.00000  Uiso   1.00
H358   H     0.97391   0.66786   0.85765   0.00000  Uiso   1.00
H359   H     0.98942   0.61441   0.92080   0.00000  Uiso   1.00
C573   C     0.88277   0.12880   0.92731   0.00000  Uiso   1.00
C574   C     0.85815   0.11165   0.96636   0.00000  Uiso   1.00
C575   C     0.87601   0.08685   0.00263   0.00000  Uiso   1.00
C576   C     0.91923   0.07803   0.00144   0.00000  Uiso   1.00
C577   C     0.94313   0.09326   0.96126   0.00000  Uiso   1.00
C578   C     0.92524   0.11776   0.92475   0.00000  Uiso   1.00
H360   H     0.82498   0.11933   0.96977   0.00000  Uiso   1.00
H361   H     0.85636   0.07582   0.03340   0.00000  Uiso   1.00
H362   H     0.97676   0.08719   0.95849   0.00000  Uiso   1.00
H363   H     0.94519   0.12907   0.89435   0.00000  Uiso   1.00
C579   C     0.88835   0.98845   0.04478   0.00000  Uiso   1.00
C580   C     0.92338   0.01343   0.06375   0.00000  Uiso   1.00
C581   C     0.94567   0.99638   0.10317   0.00000  Uiso   1.00
C582   C     0.93225   0.95680   0.12422   0.00000  Uiso   1.00
C583   C     0.89572   0.93250   0.10676   0.00000  Uiso   1.00
C584   C     0.87464   0.94842   0.06613   0.00000  Uiso   1.00
C585   C     0.94067   0.05898   0.04636   0.00000  Uiso   1.00
C586   C     0.93178   0.09132   0.08629   0.00000  Uiso   1.00
C587   C     0.90316   0.07848   0.12339   0.00000  Uiso   1.00
C588   C     0.88991   0.10807   0.15604   0.00000  Uiso   1.00
C589   C     0.90408   0.15222   0.15286   0.00000  Uiso   1.00
C590   C     0.93355   0.16517   0.11663   0.00000  Uiso   1.00
C591   C     0.94684   0.13526   0.08374   0.00000  Uiso   1.00
C592   C     0.99578   0.02068   0.00272   0.00000  Uiso   1.00
C593   C     0.03707   0.00964   0.99358   0.00000  Uiso   1.00
C594   C     0.07207   0.03018   0.01796   0.00000  Uiso   1.00
C595   C     0.06405   0.06064   0.05302   0.00000  Uiso   1.00
C596   C     0.02261   0.07170   0.06223   0.00000  Uiso   1.00
C597   C     0.98784   0.05232   0.03656   0.00000  Uiso   1.00
C598   C     0.11838   0.01989   0.00923   0.00000  Uiso   1.00
C599   C     0.17207   0.96260   0.13848   0.00000  Uiso   1.00
C600   C     0.13554   0.94274   0.11579   0.00000  Uiso   1.00
C601   C     0.11714   0.96259   0.07606   0.00000  Uiso   1.00
C602   C     0.13490   0.00252   0.05760   0.00000  Uiso   1.00
C603   C     0.16763   0.02476   0.08413   0.00000  Uiso   1.00
C604   C     0.18611   0.00501   0.12387   0.00000  Uiso   1.00
C605   C     0.14604   0.06024   0.99118   0.00000  Uiso   1.00
C606   C     0.12918   0.09985   0.98051   0.00000  Uiso   1.00
C607   C     0.15465   0.13403   0.95980   0.00000  Uiso   1.00
C608   C     0.19729   0.12913   0.94786   0.00000  Uiso   1.00
C609   C     0.21446   0.08961   0.95879   0.00000  Uiso   1.00
C610   C     0.18920   0.05586   0.98050   0.00000  Uiso   1.00
C611   C     0.14811   0.95190   0.97342   0.00000  Uiso   1.00
C612   C     0.15908   0.92818   0.93371   0.00000  Uiso   1.00
C613   C     0.14642   0.93941   0.88668   0.00000  Uiso   1.00
C614   C     0.12060   0.97440   0.88141   0.00000  Uiso   1.00
C615   C     0.10988   0.99820   0.92112   0.00000  Uiso   1.00
C616   C     0.12374   0.98777   0.96803   0.00000  Uiso   1.00
H364   H     0.87098   0.00009   0.01349   0.00000  Uiso   1.00
H365   H     0.97364   0.01488   0.11801   0.00000  Uiso   1.00
H366   H     0.95041   0.94443   0.15450   0.00000  Uiso   1.00
H367   H     0.84655   0.93003   0.05138   0.00000  Uiso   1.00
H368   H     0.89005   0.04498   0.12708   0.00000  Uiso   1.00
H369   H     0.86793   0.09649   0.18454   0.00000  Uiso   1.00
H370   H     0.94539   0.19916   0.11291   0.00000  Uiso   1.00
H371   H     0.96849   0.14681   0.05487   0.00000  Uiso   1.00
H372   H     0.96900   0.00393   0.98350   0.00000  Uiso   1.00
H373   H     0.04156   0.98444   0.96758   0.00000  Uiso   1.00
H374   H     0.09060   0.07593   0.07389   0.00000  Uiso   1.00
H375   H     0.01777   0.09530   0.08999   0.00000  Uiso   1.00
H376   H     0.12289   0.91048   0.12758   0.00000  Uiso   1.00
H377   H     0.08977   0.94592   0.05780   0.00000  Uiso   1.00
H378   H     0.18019   0.05718   0.07292   0.00000  Uiso   1.00
H379   H     0.21268   0.02238   0.14279   0.00000  Uiso   1.00
H380   H     0.09573   0.10444   0.98743   0.00000  Uiso   1.00
H381   H     0.14069   0.16445   0.95116   0.00000  Uiso   1.00
H382   H     0.24766   0.08518   0.95013   0.00000  Uiso   1.00
H383   H     0.20299   0.02519   0.98827   0.00000  Uiso   1.00
H384   H     0.16016   0.94258   0.00880   0.00000  Uiso   1.00
H385   H     0.17948   0.90157   0.93954   0.00000  Uiso   1.00
H386   H     0.10924   0.98382   0.84571   0.00000  Uiso   1.00
H387   H     0.09154   0.02638   0.91516   0.00000  Uiso   1.00
C617   C     0.32711   0.10476   0.60042   0.00000  Uiso   1.00
C618   C     0.29413   0.11230   0.56729   0.00000  Uiso   1.00
C619   C     0.26226   0.13903   0.57918   0.00000  Uiso   1.00
C620   C     0.26310   0.15986   0.62391   0.00000  Uiso   1.00
C621   C     0.29040   0.14486   0.65975   0.00000  Uiso   1.00
C622   C     0.32211   0.11787   0.64818   0.00000  Uiso   1.00
H388   H     0.29487   0.09977   0.53082   0.00000  Uiso   1.00
H389   H     0.23786   0.14575   0.55235   0.00000  Uiso   1.00
H390   H     0.28847   0.15540   0.69690   0.00000  Uiso   1.00
H391   H     0.34425   0.10848   0.67635   0.00000  Uiso   1.00
C623   C     0.17394   0.14718   0.64940   0.00000  Uiso   1.00
C624   C     0.19013   0.18272   0.62093   0.00000  Uiso   1.00
C625   C     0.16373   0.19916   0.58530   0.00000  Uiso   1.00
C626   C     0.12285   0.17928   0.57691   0.00000  Uiso   1.00
C627   C     0.10731   0.14265   0.60393   0.00000  Uiso   1.00
C628   C     0.13319   0.12756   0.64129   0.00000  Uiso   1.00
C629   C     0.23673   0.19939   0.62979   0.00000  Uiso   1.00
C630   C     0.25489   0.23687   0.59604   0.00000  Uiso   1.00
C631   C     0.24709   0.27983   0.60683   0.00000  Uiso   1.00
C632   C     0.27209   0.31510   0.58750   0.00000  Uiso   1.00
C633   C     0.30536   0.30877   0.55544   0.00000  Uiso   1.00
C634   C     0.30913   0.26643   0.53960   0.00000  Uiso   1.00
C635   C     0.28472   0.23133   0.55980   0.00000  Uiso   1.00
C636   C     0.20796   0.22650   0.70937   0.00000  Uiso   1.00
C637   C     0.21457   0.24520   0.75443   0.00000  Uiso   1.00
C638   C     0.25585   0.25559   0.77264   0.00000  Uiso   1.00
C639   C     0.29056   0.24745   0.74367   0.00000  Uiso   1.00
C640   C     0.28395   0.23063   0.69767   0.00000  Uiso   1.00
C641   C     0.24261   0.21839   0.68047   0.00000  Uiso   1.00
C642   C     0.26129   0.27275   0.82420   0.00000  Uiso   1.00
C643   C     0.17037   0.37018   0.85304   0.00000  Uiso   1.00
C644   C     0.15907   0.32563   0.85981   0.00000  Uiso   1.00
C645   C     0.18715   0.29480   0.84836   0.00000  Uiso   1.00
C646   C     0.22835   0.30694   0.83091   0.00000  Uiso   1.00
C647   C     0.23773   0.35090   0.81944   0.00000  Uiso   1.00
C648   C     0.20936   0.38178   0.82980   0.00000  Uiso   1.00
C649   C     0.30623   0.29425   0.83467   0.00000  Uiso   1.00
C650   C     0.32591   0.28900   0.87982   0.00000  Uiso   1.00
C651   C     0.36260   0.31451   0.89291   0.00000  Uiso   1.00
C652   C     0.38141   0.34574   0.86077   0.00000  Uiso   1.00
C653   C     0.36442   0.34808   0.81386   0.00000  Uiso   1.00
C654   C     0.32730   0.32295   0.80117   0.00000  Uiso   1.00
C655   C     0.23727   0.24189   0.90660   0.00000  Uiso   1.00
C656   C     0.22183   0.20766   0.93642   0.00000  Uiso   1.00
C657   C     0.22100   0.16483   0.92053   0.00000  Uiso   1.00
C658   C     0.23901   0.15705   0.87575   0.00000  Uiso   1.00
C659   C     0.25369   0.19150   0.84560   0.00000  Uiso   1.00
C660   C     0.25104   0.23446   0.85955   0.00000  Uiso   1.00
H392   H     0.19405   0.13415   0.67760   0.00000  Uiso   1.00
H393   H     0.17526   0.22710   0.56320   0.00000  Uiso   1.00
H394   H     0.10299   0.19240   0.54853   0.00000  Uiso   1.00
H395   H     0.12198   0.09918   0.66288   0.00000  Uiso   1.00
H396   H     0.22261   0.28592   0.63299   0.00000  Uiso   1.00
H397   H     0.26646   0.34773   0.59880   0.00000  Uiso   1.00
H398   H     0.33377   0.26023   0.51367   0.00000  Uiso   1.00
H399   H     0.29145   0.19923   0.54813   0.00000  Uiso   1.00
H400   H     0.17527   0.21852   0.69697   0.00000  Uiso   1.00
H401   H     0.18665   0.25122   0.77560   0.00000  Uiso   1.00
H402   H     0.32329   0.25393   0.75668   0.00000  Uiso   1.00
H403   H     0.31161   0.22677   0.67506   0.00000  Uiso   1.00
H404   H     0.12860   0.31446   0.87611   0.00000  Uiso   1.00
H405   H     0.17692   0.26083   0.85542   0.00000  Uiso   1.00
H406   H     0.26819   0.36226   0.80337   0.00000  Uiso   1.00
H407   H     0.21868   0.41557   0.82058   0.00000  Uiso   1.00
H408   H     0.31207   0.26562   0.90623   0.00000  Uiso   1.00
H409   H     0.37620   0.31066   0.92896   0.00000  Uiso   1.00
H410   H     0.37899   0.37142   0.78774   0.00000  Uiso   1.00
H411   H     0.31419   0.32693   0.76492   0.00000  Uiso   1.00
H412   H     0.23681   0.27494   0.91946   0.00000  Uiso   1.00
H413   H     0.23972   0.12388   0.86331   0.00000  Uiso   1.00
H414   H     0.26602   0.18444   0.81020   0.00000  Uiso   1.00
C661   C     0.58773   0.08851   0.17814   0.00000  Uiso   1.00
C662   C     0.54356   0.07723   0.18070   0.00000  Uiso   1.00
C663   C     0.52034   0.06475   0.13956   0.00000  Uiso   1.00
C664   C     0.54020   0.06367   0.09444   0.00000  Uiso   1.00
C665   C     0.58507   0.06648   0.09406   0.00000  Uiso   1.00
C666   C     0.60849   0.07908   0.13519   0.00000  Uiso   1.00
H415   H     0.48585   0.05821   0.14275   0.00000  Uiso   1.00
H416   H     0.60196   0.06079   0.06083   0.00000  Uiso   1.00
H417   H     0.64327   0.08332   0.13314   0.00000  Uiso   1.00
C667   C     0.56161   0.13001   0.01697   0.00000  Uiso   1.00
C668   C     0.52781   0.09838   0.01060   0.00000  Uiso   1.00
C669   C     0.50282   0.10030   0.96825   0.00000  Uiso   1.00
C670   C     0.51402   0.12984   0.93137   0.00000  Uiso   1.00
C671   C     0.55005   0.15937   0.93640   0.00000  Uiso   1.00
C672   C     0.57265   0.16017   0.98024   0.00000  Uiso   1.00
C673   C     0.51355   0.06244   0.04742   0.00000  Uiso   1.00
C674   C     0.46828   0.07409   0.06092   0.00000  Uiso   1.00
C675   C     0.43077   0.04661   0.05976   0.00000  Uiso   1.00
C676   C     0.39306   0.05948   0.07969   0.00000  Uiso   1.00
C677   C     0.39186   0.10016   0.10103   0.00000  Uiso   1.00
C678   C     0.42876   0.12903   0.09821   0.00000  Uiso   1.00
C679   C     0.46601   0.11626   0.07838   0.00000  Uiso   1.00
C680   C     0.52873   0.01204   0.97736   0.00000  Uiso   1.00
C681   C     0.52299   0.97180   0.95531   0.00000  Uiso   1.00
C682   C     0.50433   0.93529   0.98009   0.00000  Uiso   1.00
C683   C     0.49574   0.94019   0.02923   0.00000  Uiso   1.00
C684   C     0.50054   0.98055   0.05096   0.00000  Uiso   1.00
C685   C     0.51470   0.01782   0.02450   0.00000  Uiso   1.00
C686   C     0.49055   0.89321   0.95306   0.00000  Uiso   1.00
C687   C     0.40839   0.91414   0.82705   0.00000  Uiso   1.00
C688   C     0.43222   0.87763   0.83098   0.00000  Uiso   1.00
C689   C     0.46072   0.87271   0.86916   0.00000  Uiso   1.00
C690   C     0.46672   0.90374   0.90539   0.00000  Uiso   1.00
C691   C     0.44527   0.94169   0.89943   0.00000  Uiso   1.00
C692   C     0.41713   0.94701   0.86091   0.00000  Uiso   1.00
C693   C     0.45791   0.86753   0.98591   0.00000  Uiso   1.00
C694   C     0.47149   0.84190   0.02465   0.00000  Uiso   1.00
C695   C     0.44335   0.82740   0.06116   0.00000  Uiso   1.00
C696   C     0.40073   0.83837   0.06024   0.00000  Uiso   1.00
C697   C     0.38637   0.86065   0.01939   0.00000  Uiso   1.00
C698   C     0.41447   0.87497   0.98298   0.00000  Uiso   1.00
C699   C     0.52017   0.82164   0.93368   0.00000  Uiso   1.00
C700   C     0.54896   0.79818   0.90927   0.00000  Uiso   1.00
C701   C     0.58645   0.81888   0.88944   0.00000  Uiso   1.00
C702   C     0.59670   0.86250   0.90049   0.00000  Uiso   1.00
C703   C     0.56781   0.88591   0.92528   0.00000  Uiso   1.00
C704   C     0.52790   0.86663   0.93957   0.00000  Uiso   1.00
H418   H     0.58023   0.13141   0.05036   0.00000  Uiso   1.00
H419   H     0.47465   0.07766   0.96387   0.00000  Uiso   1.00
H420   H     0.49480   0.13002   0.89838   0.00000  Uiso   1.00
H421   H     0.60008   0.18362   0.98530   0.00000  Uiso   1.00
H422   H     0.43068   0.01434   0.04459   0.00000  Uiso   1.00
H423   H     0.36453   0.03693   0.07932   0.00000  Uiso   1.00
H424   H     0.42910   0.16111   0.11384   0.00000  Uiso   1.00
H425   H     0.49454   0.13879   0.07841   0.00000  Uiso   1.00
H426   H     0.54322   0.03922   0.95619   0.00000  Uiso   1.00
H427   H     0.53167   0.96974   0.91747   0.00000  Uiso   1.00
H428   H     0.48368   0.91269   0.05152   0.00000  Uiso   1.00
H429   H     0.49210   0.98295   0.08886   0.00000  Uiso   1.00
H430   H     0.42697   0.85141   0.80530   0.00000  Uiso   1.00
H431   H     0.47707   0.84295   0.87121   0.00000  Uiso   1.00
H432   H     0.44900   0.96723   0.92605   0.00000  Uiso   1.00
H433   H     0.40085   0.97684   0.85833   0.00000  Uiso   1.00
H434   H     0.50494   0.83484   0.02764   0.00000  Uiso   1.00
H435   H     0.45515   0.80856   0.09139   0.00000  Uiso   1.00
H436   H     0.35336   0.86926   0.01716   0.00000  Uiso   1.00
H437   H     0.40225   0.89393   0.95317   0.00000  Uiso   1.00
H438   H     0.49038   0.80486   0.94626   0.00000  Uiso   1.00
H439   H     0.54134   0.76361   0.90377   0.00000  Uiso   1.00
H440   H     0.62632   0.87917   0.88717   0.00000  Uiso   1.00
H441   H     0.57629   0.92019   0.93145   0.00000  Uiso   1.00
H442   H     0.55853   0.13158   0.84667   0.00000  Uiso   1.00
H443   H     0.54960   0.86533   0.30755   0.00000  Uiso   1.00
H444   H     0.84695   0.62619   0.15735   0.00000  Uiso   1.00
H445   H     0.10718   0.45804   0.16022   0.00000  Uiso   1.00
H446   H     0.20966   0.21428   0.97204   0.00000  Uiso   1.00
H447   H     0.52653   0.08124   0.21424   0.00000  Uiso   1.00
H448   H     0.39132   0.39113   0.11840   0.00000  Uiso   1.00
loop_
_geom_bond_atom_site_label_1
_geom_bond_atom_site_label_2
_geom_bond_distance
_geom_bond_site_symmetry_2
_ccdc_geom_bond_type
C1     C2      1.398   .     S
C1     C6      1.395   .     D
C1     C407    1.473   .     S
C2     C3      1.384   .     D
C2     H1      1.085   .     S
C3     C4      1.398   .     S
C3     H2      1.084   .     S
C4     C5      1.392   .     D
C4     C13     1.530   .     S
C5     C6      1.386   .     S
C5     H3      1.083   .     S
C6     H4      1.085   .     S
C7     C8      1.391   .     D
C7     C12     1.390   .     S
C7     H5      1.084   .     S
C8     C9      1.399   .     S
C8     C13     1.535   .     S
C9     C10     1.381   .     D
C9     H6      1.084   .     S
C10    C11     1.398   .     S
C10    H7      1.085   .     S
C11    C12     1.393   .     D
C11    C388    1.475   .     S
C12    H8      1.085   .     S
C13    C14     1.535   .     S
C13    C25     1.532   .     S
C14    C15     1.399   .     D
C14    C19     1.393   .     S
C15    C16     1.387   .     S
C15    H9      1.085   .     S
C16    C17     1.397   .     D
C16    H10     1.085   .     S
C17    C18     1.395   .     S
C17    C349    1.474   .     S
C18    C19     1.385   .     D
C18    H11     1.085   .     S
C19    H12     1.082   .     S
C20    C21     1.386   .     S
C20    C25     1.398   .     D
C20    H13     1.085   .     S
C21    C22     1.392   .     D
C21    H14     1.084   .     S
C22    C23     1.394   .     S
C22    C26     1.524   .     S
C23    C24     1.387   .     D
C23    H15     1.084   .     S
C24    C25     1.390   .     S
C24    H16     1.083   .     S
C26    C30     1.530   .     S
C26    C33     1.531   .     S
C26    C44     1.535   .     S
C27    C28     1.398   .     S
C27    C32     1.397   .     D
C27    C633    1.475   .     S
C28    C29     1.386   .     D
C28    H17     1.084   .     S
C29    C30     1.395   .     S
C29    H18     1.084   .     S
C30    C31     1.395   .     D
C31    C32     1.385   .     S
C31    H19     1.084   .     S
C32    H20     1.085   .     S
C33    C34     1.395   .     S
C33    C38     1.393   .     D
C34    C35     1.388   .     D
C34    H21     1.085   .     S
C35    C36     1.394   .     S
C35    H22     1.085   .     S
C36    C37     1.399   .     D
C36    C105    1.473   .     S
C37    C38     1.381   .     S
C37    H23     1.084   .     S
C38    H24     1.084   .     S
C39    C40     1.387   .     S
C39    C44     1.397   .     D
C39    H25     1.084   .     S
C40    C41     1.396   .     D
C40    H26     1.085   .     S
C41    C42     1.398   .     S
C41    C237    1.478   .     S
C42    C43     1.386   .     D
C42    H27     1.085   .     S
C43    C44     1.395   .     S
C43    H28     1.085   .     S
C45    C46     1.399   .     S
C45    C50     1.397   .     D
C45    C275    1.473   .     S
C46    C47     1.383   .     D
C46    H29     1.084   .     S
C47    C48     1.397   .     S
C47    H30     1.084   .     S
C48    C49     1.393   .     D
C48    C57     1.525   .     S
C49    C50     1.385   .     S
C49    H31     1.084   .     S
C50    H32     1.084   .     S
C51    C52     1.391   .     D
C51    C56     1.391   .     S
C51    H33     1.083   .     S
C52    C53     1.398   .     S
C52    C57     1.528   .     S
C53    C54     1.379   .     D
C53    H34     1.084   .     S
C54    C55     1.398   .     S
C54    H35     1.084   .     S
C55    C56     1.392   .     D
C55    C652    1.474   .     S
C56    H36     1.085   .     S
C57    C58     1.535   .     S
C57    C69     1.523   .     S
C58    C59     1.397   .     D
C58    C63     1.391   .     S
C59    C60     1.384   .     S
C59    H37     1.085   .     S
C60    C61     1.397   .     D
C60    H38     1.084   .     S
C61    C62     1.397   .     S
C61    C344    1.470   .     S
C62    C63     1.383   .     D
C62    H39     1.084   .     S
C63    H40     1.083   .     S
C64    C65     1.389   1_556 D
C64    C69     1.393   .     S
C64    H41     1.085   .     S
C65    C64     1.389   1_554 D
C65    C66     1.390   .     S
C65    H42     1.083   .     S
C66    C67     1.394   .     D
C66    C70     1.523   .     S
C67    C68     1.381   .     S
C67    H43     1.084   .     S
C68    C69     1.393   1_554 D
C68    H44     1.083   1_554 S
C69    C68     1.393   1_556 D
C70    C74     1.534   .     S
C70    C77     1.526   .     S
C70    C88     1.526   .     S
C71    C72     1.398   .     D
C71    C76     1.397   .     S
C71    C177    1.476   .     S
C72    C73     1.380   .     S
C72    H448    1.084   .     S
C73    C74     1.399   .     D
C73    H45     1.084   .     S
C74    C75     1.393   .     S
C75    C76     1.392   .     D
C75    H46     1.084   .     S
C76    H47     1.085   .     S
C77    C78     1.400   .     D
C77    C82     1.389   .     S
C78    C79     1.379   .     S
C78    H48     1.084   .     S
C79    C80     1.398   .     D
C79    H49     1.084   .     S
C80    C81     1.398   .     S
C80    C397    1.473   .     S
C81    C82     1.391   .     D
C81    H50     1.085   .     S
C82    H51     1.084   .     S
C83    C84     1.380   .     S
C83    C88     1.396   .     D
C83    H52     1.084   .     S
C84    C85     1.397   .     D
C84    H53     1.084   .     S
C85    C86     1.396   .     S
C85    C221    1.468   .     S
C86    C87     1.386   .     D
C86    H54     1.084   .     S
C87    C88     1.392   .     S
C87    H55     1.084   .     S
H44    C68     1.083   1_556 S
C89    C90     1.394   .     D
C89    C94     1.394   .     S
C89    C173    1.473   .     S
C90    C91     1.381   .     S
C90    H56     1.085   .     S
C91    C92     1.394   .     D
C91    H57     1.080   .     S
C92    C93     1.398   .     S
C92    C101    1.541   .     S
C93    C94     1.388   .     D
C93    H58     1.085   .     S
C94    H59     1.084   .     S
C95    C96     1.391   .     S
C95    C100    1.383   .     D
C95    H60     1.083   .     S
C96    C97     1.399   .     D
C96    C101    1.527   .     S
C97    C98     1.385   .     S
C97    H61     1.085   .     S
C98    C99     1.394   .     D
C98    H62     1.084   .     S
C99    C100    1.394   .     S
C99    C671    1.471   .     S
C100   H442    1.084   .     S
C101   C102    1.532   .     S
C101   C113    1.532   .     S
C102   C103    1.397   .     D
C102   C107    1.398   .     S
C103   C104    1.386   .     S
C103   H63     1.084   .     S
C104   C105    1.398   .     D
C104   H64     1.085   .     S
C105   C106    1.398   .     S
C106   C107    1.383   .     D
C106   H65     1.084   .     S
C107   H66     1.083   .     S
C108   C109    1.384   .     S
C108   C113    1.393   .     D
C108   H67     1.082   .     S
C109   C110    1.394   .     D
C109   H68     1.084   .     S
C110   C111    1.391   .     S
C110   C114    1.526   .     S
C111   C112    1.388   .     D
C111   H69     1.084   .     S
C112   C113    1.395   .     S
C112   H70     1.084   .     S
C114   C118    1.549   .     S
C114   C121    1.540   .     S
C114   C132    1.528   .     S
C115   C116    1.391   .     S
C115   C120    1.391   .     D
C115   C564    1.482   .     S
C116   C117    1.386   .     D
C116   H71     1.084   .     S
C117   C118    1.393   .     S
C117   H72     1.081   .     S
C118   C119    1.399   .     D
C119   C120    1.386   .     S
C119   H73     1.083   .     S
C120   H74     1.084   .     S
C121   C122    1.392   .     D
C121   C126    1.398   .     S
C122   C123    1.393   .     S
C122   H75     1.083   .     S
C123   C124    1.395   .     D
C123   H76     1.085   .     S
C124   C125    1.398   .     S
C124   C476    1.473   .     S
C125   C126    1.376   .     D
C125   H77     1.084   .     S
C126   H78     1.082   .     S
C127   C128    1.386   .     D
C127   C132    1.398   .     S
C127   H79     1.084   .     S
C128   C129    1.398   .     S
C128   H80     1.084   .     S
C129   C130    1.396   .     D
C129   C573    1.475   .     S
C130   C131    1.386   .     S
C130   H81     1.084   .     S
C131   C132    1.396   .     D
C131   H82     1.083   .     S
C133   C134    1.393   .     D
C133   C138    1.395   .     S
C133   C413    1.475   .     S
C134   C135    1.383   .     S
C134   H443    1.084   .     S
C135   C136    1.393   .     D
C135   H83     1.082   .     S
C136   C137    1.398   .     S
C136   C145    1.533   .     S
C137   C138    1.386   .     D
C137   H84     1.084   .     S
C138   H85     1.085   .     S
C139   C140    1.399   .     S
C139   C144    1.388   .     D
C139   H86     1.085   .     S
C140   C141    1.392   .     D
C140   C145    1.534   .     S
C141   C142    1.381   .     S
C141   H87     1.082   .     S
C142   C143    1.399   .     D
C142   H88     1.084   .     S
C143   C144    1.397   .     S
C143   C265    1.473   .     S
C144   H89     1.085   .     S
C145   C146    1.532   .     S
C145   C157    1.524   .     S
C146   C147    1.400   .     D
C146   C151    1.389   .     S
C147   C148    1.377   .     S
C147   H90     1.083   .     S
C148   C149    1.397   .     D
C148   H91     1.084   .     S
C149   C150    1.397   .     S
C149   C369    1.470   .     S
C150   C151    1.390   .     D
C150   H92     1.085   .     S
C151   H93     1.084   .     S
C152   C153    1.380   .     D
C152   C157    1.396   .     S
C152   H94     1.084   .     S
C153   C154    1.391   1_565 S
C153   H95     1.082   1_565 S
C154   C153    1.391   1_545 S
C154   C155    1.394   .     D
C154   C158    1.522   .     S
C155   C156    1.389   1_545 S
C155   H96     1.085   .     S
C156   C155    1.389   1_565 S
C156   C157    1.390   .     D
C156   H97     1.083   .     S
C158   C162    1.538   .     S
C158   C165    1.535   .     S
C158   C176    1.520   .     S
C159   C160    1.397   .     S
C159   C164    1.398   .     D
C159   C617    1.470   .     S
C160   C161    1.385   .     D
C160   H98     1.084   .     S
C161   C162    1.389   .     S
C161   H99     1.083   .     S
C162   C163    1.400   .     D
C163   C164    1.382   .     S
C163   H100    1.085   .     S
C164   H101    1.084   .     S
C165   C166    1.399   .     D
C165   C170    1.394   .     S
C166   C167    1.385   .     S
C166   H102    1.085   .     S
C167   C168    1.396   .     D
C167   H103    1.085   .     S
C168   C169    1.394   .     S
C168   C212    1.475   .     S
C169   C170    1.385   .     D
C169   H104    1.085   .     S
C170   H105    1.083   .     S
C171   C172    1.388   .     S
C171   C176    1.391   .     D
C171   H106    1.084   .     S
C172   C173    1.395   .     D
C172   H107    1.085   .     S
C173   C174    1.396   .     S
C174   C175    1.382   .     D
C174   H108    1.085   .     S
C175   C176    1.398   .     S
C175   H109    1.085   .     S
H95    C153    1.082   1_545 S
C177   C178    1.397   .     S
C177   C182    1.397   .     D
C178   C179    1.390   .     D
C178   H110    1.085   .     S
C179   C180    1.395   .     S
C179   H111    1.085   .     S
C180   C181    1.395   .     D
C180   C189    1.536   .     S
C181   C182    1.383   .     S
C181   H112    1.084   .     S
C182   H113    1.084   .     S
C183   C184    1.399   .     S
C183   C188    1.380   .     D
C183   H114    1.084   .     S
C184   C185    1.391   .     D
C184   C189    1.533   .     S
C185   C186    1.391   .     S
C185   H115    1.083   .     S
C186   C187    1.394   .     D
C186   H116    1.085   .     S
C187   C188    1.399   .     S
C187   C545    1.475   .     S
C188   H117    1.085   .     S
C189   C190    1.529   .     S
C189   C201    1.526   .     S
C190   C191    1.397   .     D
C190   C195    1.392   .     S
C191   C192    1.385   .     S
C191   H118    1.085   .     S
C192   C193    1.396   .     D
C192   H119    1.085   .     S
C193   C194    1.397   .     S
C193   C441    1.473   .     S
C194   C195    1.385   .     D
C194   H120    1.084   .     S
C195   H121    1.084   .     S
C196   C197    1.390   .     D
C196   C201    1.394   .     S
C196   H122    1.084   .     S
C197   C198    1.393   .     S
C197   H123    1.084   .     S
C198   C199    1.395   .     D
C198   C202    1.527   .     S
C199   C200    1.385   .     S
C199   H124    1.084   .     S
C200   C201    1.394   .     D
C200   H125    1.084   .     S
C202   C206    1.529   .     S
C202   C209    1.539   .     S
C202   C220    1.529   .     S
C203   C204    1.391   .     D
C203   C208    1.396   .     S
C203   C525    1.485   .     S
C204   C205    1.391   .     S
C204   H126    1.085   .     S
C205   C206    1.393   .     D
C205   H127    1.084   .     S
C206   C207    1.396   .     S
C207   C208    1.383   .     D
C207   H128    1.084   .     S
C208   H129    1.085   .     S
C209   C210    1.395   .     S
C209   C214    1.394   .     D
C210   C211    1.388   .     D
C210   H130    1.085   .     S
C211   C212    1.393   .     S
C211   H131    1.085   .     S
C212   C213    1.397   .     D
C213   C214    1.382   .     S
C213   H132    1.085   .     S
C214   H133    1.084   .     S
C215   C216    1.384   .     S
C215   C220    1.398   .     D
C215   H134    1.084   .     S
C216   C217    1.397   .     D
C216   H135    1.085   .     S
C217   C218    1.397   .     S
C217   C677    1.472   .     S
C218   C219    1.384   .     D
C218   H136    1.084   .     S
C219   C220    1.394   .     S
C219   H137    1.083   .     S
C221   C222    1.397   .     S
C221   C226    1.396   .     D
C222   C223    1.383   .     D
C222   H138    1.084   .     S
C223   C224    1.394   .     S
C223   H139    1.084   .     S
C224   C225    1.393   .     D
C224   C233    1.533   .     S
C225   C226    1.383   .     S
C225   H140    1.084   .     S
C226   H141    1.084   .     S
C227   C228    1.390   .     S
C227   C232    1.392   .     D
C227   H142    1.084   .     S
C228   C229    1.399   .     D
C228   C233    1.527   .     S
C229   C230    1.377   .     S
C229   H143    1.084   .     S
C230   C231    1.399   .     D
C230   H144    1.084   .     S
C231   C232    1.397   .     S
C231   C661    1.473   .     S
C232   H145    1.085   .     S
C233   C234    1.529   .     S
C233   C245    1.524   .     S
C234   C235    1.397   .     S
C234   C239    1.397   .     D
C235   C236    1.385   .     D
C235   H146    1.084   .     S
C236   C237    1.397   .     S
C236   H147    1.085   .     S
C237   C238    1.398   .     D
C238   C239    1.387   .     S
C238   H148    1.085   .     S
C239   H149    1.085   .     S
C240   C241    1.382   .     S
C240   C245    1.394   .     D
C240   H150    1.083   .     S
C241   C242    1.395   .     D
C241   H151    1.085   .     S
C242   C243    1.391   .     S
C242   C246    1.526   .     S
C243   C244    1.389   .     D
C243   H152    1.083   .     S
C244   C245    1.392   .     S
C244   H153    1.085   .     S
C246   C250    1.539   .     S
C246   C253    1.534   .     S
C246   C264    1.536   .     S
C247   C248    1.396   .     D
C247   C252    1.395   .     S
C247   C495    1.471   .     S
C248   C249    1.382   .     S
C248   H154    1.084   .     S
C249   C250    1.393   .     D
C249   H155    1.083   .     S
C250   C251    1.397   .     S
C251   C252    1.386   .     D
C251   H156    1.084   .     S
C252   H157    1.085   .     S
C253   C254    1.395   .     D
C253   C258    1.398   .     S
C254   C255    1.386   .     S
C254   H158    1.082   .     S
C255   C256    1.392   .     D
C255   H159    1.085   .     S
C256   C257    1.397   .     S
C256   C481    1.474   .     S
C257   C258    1.385   .     D
C257   H160    1.085   .     S
C258   H161    1.084   .     S
C259   C260    1.381   .     D
C259   C264    1.399   .     S
C259   H162    1.084   .     S
C260   C261    1.398   .     S
C260   H163    1.084   .     S
C261   C262    1.394   .     D
C261   C589    1.479   .     S
C262   C263    1.392   .     S
C262   H164    1.085   .     S
C263   C264    1.394   .     D
C263   H165    1.083   .     S
C265   C266    1.400   .     S
C265   C270    1.396   .     D
C266   C267    1.377   .     D
C266   H166    1.083   .     S
C267   C268    1.396   .     S
C267   H167    1.083   .     S
C268   C269    1.394   .     D
C268   C277    1.532   .     S
C269   C270    1.392   .     S
C269   H168    1.084   .     S
C270   H169    1.085   .     S
C271   C272    1.393   .     S
C271   C276    1.386   .     D
C271   H170    1.083   .     S
C272   C273    1.399   .     D
C272   C277    1.531   .     S
C273   C274    1.382   .     S
C273   H171    1.085   .     S
C274   C275    1.399   .     D
C274   H172    1.084   .     S
C275   C276    1.397   .     S
C276   H173    1.084   .     S
C277   C278    1.540   .     S
C277   C289    1.528   .     S
C278   C279    1.389   .     D
C278   C283    1.399   .     S
C279   C280    1.396   .     S
C279   H174    1.085   .     S
C280   C281    1.392   .     D
C280   H175    1.085   .     S
C281   C282    1.400   .     S
C281   C701    1.478   .     S
C282   C283    1.375   .     D
C282   H176    1.084   .     S
C283   H177    1.084   .     S
C284   C285    1.385   .     S
C284   C289    1.393   .     D
C284   H178    1.083   .     S
C285   C286    1.397   .     D
C285   H179    1.084   .     S
C286   C287    1.391   .     S
C286   C290    1.532   .     S
C287   C288    1.389   .     D
C287   H180    1.084   .     S
C288   C289    1.395   .     S
C288   H181    1.084   .     S
C290   C294    1.546   .     S
C290   C297    1.528   .     S
C290   C308    1.540   .     S
C291   C292    1.393   .     D
C291   C296    1.395   .     S
C291   C569    1.478   .     S
C292   C293    1.386   .     S
C292   H182    1.084   .     S
C293   C294    1.393   .     D
C293   H183    1.082   .     S
C294   C295    1.398   .     S
C295   C296    1.386   .     D
C295   H184    1.084   .     S
C296   H185    1.085   .     S
C297   C298    1.397   .     D
C297   C302    1.392   .     S
C298   C299    1.383   .     S
C298   H186    1.085   .     S
C299   C300    1.399   .     D
C299   H187    1.084   .     S
C300   C301    1.397   .     S
C300   C501    1.478   .     S
C301   C302    1.389   .     D
C301   H188    1.085   .     S
C302   H189    1.085   .     S
C303   C304    1.385   .     D
C303   C308    1.400   .     S
C303   H190    1.084   .     S
C304   C305    1.398   .     S
C304   H191    1.084   .     S
C305   C306    1.394   .     D
C305   C467    1.475   .     S
C306   C307    1.387   .     S
C306   H192    1.085   .     S
C307   C308    1.394   .     D
C307   H193    1.082   .     S
C309   C310    1.396   .     D
C309   C314    1.400   .     S
C309   C687    1.474   .     S
C310   C311    1.384   .     S
C310   H194    1.084   .     S
C311   C312    1.394   .     D
C311   H195    1.082   .     S
C312   C313    1.399   .     S
C312   C321    1.541   .     S
C313   C314    1.386   .     D
C313   H196    1.085   .     S
C314   H197    1.084   .     S
C315   C316    1.391   .     S
C315   C320    1.391   .     D
C315   H198    1.084   .     S
C316   C317    1.399   .     D
C316   C321    1.526   .     S
C317   C318    1.381   .     S
C317   H199    1.085   .     S
C318   C319    1.399   .     D
C318   H200    1.084   .     S
C319   C320    1.395   .     S
C319   C520    1.475   .     S
C320   H201    1.085   .     S
C321   C322    1.531   .     S
C321   C333    1.540   .     S
C322   C323    1.392   .     D
C322   C327    1.400   .     S
C323   C324    1.389   .     S
C323   H202    1.084   .     S
C324   C325    1.397   .     D
C324   H203    1.085   .     S
C325   C326    1.399   .     S
C325   C613    1.477   .     S
C326   C327    1.384   .     D
C326   H204    1.084   .     S
C327   H205    1.085   .     S
C328   C329    1.387   .     S
C328   C333    1.392   .     D
C328   H206    1.083   .     S
C329   C330    1.394   .     D
C329   H207    1.084   .     S
C330   C331    1.394   .     S
C330   C334    1.525   .     S
C331   C332    1.387   .     D
C331   H208    1.083   .     S
C332   C333    1.397   .     S
C332   H209    1.084   .     S
C334   C338    1.542   .     S
C334   C341    1.524   .     S
C334   C352    1.549   .     S
C335   C336    1.395   .     D
C335   C340    1.394   .     S
C335   C457    1.474   .     S
C336   C337    1.380   .     S
C336   H210    1.084   .     S
C337   C338    1.396   .     D
C337   H211    1.082   .     S
C338   C339    1.395   .     S
C339   C340    1.390   .     D
C339   H212    1.084   .     S
C340   H213    1.085   .     S
C341   C342    1.398   .     S
C341   C346    1.392   .     D
C342   C343    1.384   .     D
C342   H214    1.084   .     S
C343   C344    1.398   .     S
C343   H215    1.084   .     S
C344   C345    1.398   .     D
C345   C346    1.384   .     S
C345   H216    1.084   .     S
C346   H217    1.084   .     S
C347   C348    1.383   .     S
C347   C352    1.401   .     D
C347   H218    1.082   .     S
C348   C349    1.395   .     D
C348   H219    1.084   .     S
C349   C350    1.396   .     S
C350   C351    1.388   .     D
C350   H220    1.085   .     S
C351   C352    1.394   .     S
C351   H221    1.083   .     S
C353   C354    1.395   .     D
C353   C358    1.398   .     S
C353   C696    1.470   .     S
C354   C355    1.387   .     S
C354   H222    1.084   .     S
C355   C356    1.390   .     D
C355   H223    1.083   .     S
C356   C357    1.398   .     S
C356   C365    1.539   .     S
C357   C358    1.381   .     D
C357   H224    1.085   .     S
C358   H225    1.084   .     S
C359   C360    1.397   .     D
C359   C364    1.379   .     S
C359   H226    1.083   .     S
C360   C361    1.393   .     S
C360   C365    1.524   .     S
C361   C362    1.392   .     D
C361   H227    1.084   .     S
C362   C363    1.395   .     S
C362   H228    1.085   .     S
C363   C364    1.398   .     D
C363   C599    1.474   .     S
C364   H229    1.084   .     S
C365   C366    1.524   .     S
C365   C377    1.526   .     S
C366   C367    1.395   .     S
C366   C371    1.393   .     D
C367   C368    1.386   .     D
C367   H230    1.084   .     S
C368   C369    1.395   .     S
C368   H231    1.084   .     S
C369   C370    1.399   .     D
C370   C371    1.382   .     S
C370   H232    1.084   .     S
C371   H233    1.084   .     S
C372   C373    1.392   .     S
C372   C377    1.388   .     D
C372   H234    1.083   .     S
C373   C374    1.395   .     D
C373   H235    1.084   .     S
C374   C375    1.392   .     S
C374   C378    1.524   .     S
C375   C376    1.378   .     D
C375   H236    1.082   .     S
C376   C377    1.398   .     S
C376   H237    1.084   .     S
C378   C382    1.535   .     S
C378   C385    1.538   .     S
C378   C396    1.527   .     S
C379   C380    1.399   .     D
C379   C384    1.399   .     S
C379   C451    1.470   .     S
C380   C381    1.381   .     S
C380   H238    1.083   .     S
C381   C382    1.393   .     D
C381   H239    1.082   .     S
C382   C383    1.397   .     S
C383   C384    1.385   .     D
C383   H240    1.084   .     S
C384   H241    1.084   .     S
C385   C386    1.398   .     D
C385   C390    1.393   .     S
C386   C387    1.389   .     S
C386   H242    1.085   .     S
C387   C388    1.395   .     D
C387   H243    1.085   .     S
C388   C389    1.395   .     S
C389   C390    1.381   .     D
C389   H244    1.085   .     S
C390   H245    1.082   .     S
C391   C392    1.383   .     D
C391   C396    1.398   .     S
C391   H246    1.084   .     S
C392   C393    1.398   .     S
C392   H247    1.084   .     S
C393   C394    1.395   .     D
C393   C539    1.471   .     S
C394   C395    1.386   .     S
C394   H248    1.084   .     S
C395   C396    1.393   .     D
C395   H249    1.083   .     S
C397   C398    1.396   .     S
C397   C402    1.400   .     D
C398   C399    1.386   .     D
C398   H250    1.085   .     S
C399   C400    1.394   .     S
C399   H251    1.083   .     S
C400   C401    1.398   .     D
C400   C409    1.534   .     S
C401   C402    1.384   .     S
C401   H252    1.085   .     S
C402   H253    1.084   .     S
C403   C404    1.393   .     S
C403   C408    1.383   .     D
C403   H254    1.081   .     S
C404   C405    1.401   .     D
C404   C409    1.547   .     S
C405   C406    1.385   .     S
C405   H255    1.085   .     S
C406   C407    1.397   .     D
C406   H256    1.084   .     S
C407   C408    1.395   .     S
C408   H257    1.084   .     S
C409   C410    1.532   .     S
C409   C421    1.517   .     S
C410   C411    1.391   .     S
C410   C415    1.399   .     D
C411   C412    1.391   .     D
C411   H258    1.084   .     S
C412   C413    1.389   .     S
C412   H259    1.084   .     S
C413   C414    1.398   .     D
C414   C415    1.378   .     S
C414   H260    1.084   .     S
C415   H261    1.084   .     S
C416   C417    1.391   .     S
C416   C421    1.389   .     D
C416   H262    1.084   .     S
C417   C418    1.394   .     D
C417   H263    1.085   .     S
C418   C419    1.394   .     S
C418   C422    1.528   .     S
C419   C420    1.382   .     D
C419   H264    1.083   .     S
C420   C421    1.395   .     S
C420   H265    1.085   .     S
C422   C426    1.535   .     S
C422   C429    1.542   .     S
C422   C440    1.530   .     S
C423   C424    1.394   .     S
C423   C428    1.396   .     D
C423   C511    1.476   1_655 S
C424   C425    1.385   .     D
C424   H266    1.084   1_655 S
C425   C426    1.395   .     S
C425   H267    1.082   .     S
C426   C427    1.398   .     D
C427   C428    1.387   .     S
C427   H268    1.084   .     S
C428   H269    1.085   .     S
C429   C430    1.398   .     D
C429   C434    1.392   .     S
C430   C431    1.388   .     S
C430   H270    1.084   .     S
C431   C432    1.394   .     D
C431   H271    1.085   .     S
C432   C433    1.397   .     S
C432   C583    1.474   .     S
C433   C434    1.382   .     D
C433   H272    1.085   .     S
C434   H273    1.083   .     S
C435   C436    1.382   .     S
C435   C440    1.398   .     D
C435   H274    1.084   .     S
C436   C437    1.396   .     D
C436   H275    1.084   .     S
C437   C438    1.393   .     S
C437   C555    1.470   .     S
C438   C439    1.386   .     D
C438   H444    1.085   .     S
C439   C440    1.392   .     S
C439   H276    1.083   .     S
H266   C424    1.084   1_455 S
C441   C442    1.396   .     S
C441   C446    1.396   .     D
C442   C443    1.385   .     D
C442   H277    1.084   .     S
C443   C444    1.394   .     S
C443   H278    1.082   .     S
C444   C445    1.399   .     D
C444   C453    1.537   .     S
C445   C446    1.386   .     S
C445   H279    1.084   .     S
C446   H280    1.084   .     S
C447   C448    1.395   .     D
C447   C452    1.381   .     S
C447   H281    1.082   .     S
C448   C449    1.394   .     S
C448   C453    1.544   .     S
C449   C450    1.385   .     D
C449   H282    1.083   .     S
C450   C451    1.398   .     S
C450   H283    1.084   .     S
C451   C452    1.399   .     D
C452   H284    1.084   .     S
C453   C454    1.526   .     S
C453   C465    1.522   .     S
C454   C455    1.393   .     S
C454   C459    1.399   .     D
C455   C456    1.389   .     D
C455   H285    1.084   .     S
C456   C457    1.392   .     S
C456   H286    1.085   .     S
C457   C458    1.397   .     D
C458   C459    1.381   .     S
C458   H287    1.085   .     S
C459   H288    1.084   .     S
C460   C461    1.379   1_455 D
C460   C465    1.392   .     S
C460   H289    1.083   .     S
C461   C460    1.379   1_655 D
C461   C462    1.396   .     S
C461   H290    1.084   .     S
C462   C463    1.389   1_655 D
C462   C466    1.527   .     S
C463   C462    1.389   1_455 D
C463   C464    1.390   .     S
C463   H291    1.084   .     S
C464   C465    1.393   .     D
C464   H292    1.085   .     S
C466   C470    1.532   .     S
C466   C473    1.535   .     S
C466   C484    1.533   .     S
C467   C468    1.394   .     S
C467   C472    1.398   .     D
C468   C469    1.392   .     D
C468   H293    1.085   .     S
C469   C470    1.390   .     S
C469   H294    1.084   .     S
C470   C471    1.400   .     D
C471   C472    1.380   .     S
C471   H295    1.084   .     S
C472   H296    1.084   .     S
C473   C474    1.398   .     S
C473   C478    1.392   .     D
C474   C475    1.387   .     D
C474   H297    1.084   .     S
C475   C476    1.396   .     S
C475   H298    1.085   .     S
C476   C477    1.398   .     D
C477   C478    1.383   .     S
C477   H299    1.084   .     S
C478   H300    1.083   .     S
C479   C480    1.385   .     D
C479   C484    1.397   .     S
C479   H301    1.085   .     S
C480   C481    1.397   .     S
C480   H302    1.085   .     S
C481   C482    1.393   .     D
C482   C483    1.385   .     S
C482   H303    1.084   .     S
C483   C484    1.394   .     D
C483   H304    1.083   .     S
C485   C486    1.396   .     D
C485   C490    1.397   .     S
C485   C627    1.475   .     S
C486   C487    1.393   .     S
C486   H305    1.085   .     S
C487   C488    1.389   .     D
C487   H306    1.084   1_455 S
C488   C489    1.400   .     S
C488   C497    1.533   1_455 S
C489   C490    1.377   .     D
C489   H307    1.083   .     S
C490   H308    1.084   .     S
H306   C487    1.084   1_655 S
C491   C492    1.393   .     D
C491   C496    1.382   .     S
C491   H309    1.083   .     S
C492   C493    1.396   .     S
C492   C497    1.527   .     S
C493   C494    1.387   .     D
C493   H310    1.085   .     S
C494   C495    1.395   .     S
C494   H311    1.084   .     S
C495   C496    1.395   .     D
C496   H312    1.084   .     S
C497   C488    1.533   1_655 S
C497   C498    1.527   1_545 S
C497   C509    1.534   1_645 S
C498   C497    1.527   1_565 S
C498   C499    1.395   .     S
C498   C503    1.397   .     D
C499   C500    1.385   .     D
C499   H313    1.084   .     S
C500   C501    1.398   .     S
C500   H314    1.085   .     S
C501   C502    1.398   .     D
C502   C503    1.387   .     S
C502   H315    1.085   .     S
C503   H316    1.084   1_655 S
C504   C505    1.387   1_655 D
C504   C509    1.392   1_655 S
C504   H317    1.084   .     S
C505   C504    1.387   1_455 D
C505   C506    1.397   .     S
C505   H318    1.083   .     S
C506   C507    1.391   .     D
C506   C510    1.543   .     S
C507   C508    1.382   .     S
C507   H319    1.082   .     S
C508   C509    1.392   .     D
C508   H320    1.083   1_565 S
C509   C497    1.534   1_465 S
C509   C504    1.392   1_455 S
C510   C514    1.530   .     S
C510   C517    1.535   .     S
C510   C528    1.533   .     S
C511   C423    1.476   1_455 S
C511   C512    1.396   .     S
C511   C516    1.395   .     D
C512   C513    1.386   .     D
C512   H321    1.085   .     S
C513   C514    1.392   .     S
C513   H322    1.083   .     S
C514   C515    1.400   .     D
C515   C516    1.385   .     S
C515   H323    1.084   .     S
C516   H324    1.084   1_455 S
C517   C518    1.400   .     S
C517   C522    1.393   .     D
C518   C519    1.385   .     D
C518   H325    1.084   .     S
C519   C520    1.395   .     S
C519   H326    1.085   .     S
C520   C521    1.398   .     D
C521   C522    1.386   .     S
C521   H327    1.085   .     S
C522   H328    1.083   .     S
C523   C524    1.387   .     D
C523   C528    1.398   .     S
C523   H329    1.085   .     S
C524   C525    1.395   1_565 S
C524   H330    1.085   .     S
C525   C524    1.395   1_545 S
C525   C526    1.392   .     D
C526   C527    1.387   1_545 S
C526   H331    1.084   .     S
C527   C526    1.387   1_565 S
C527   C528    1.393   .     D
C527   H332    1.083   1_565 S
H316   C503    1.084   1_455 S
H320   C508    1.083   1_545 S
H324   C516    1.084   1_655 S
H332   C527    1.083   1_545 S
C529   C530    1.398   .     S
C529   C534    1.401   .     D
C529   C643    1.471   .     S
C530   C531    1.382   .     D
C530   H333    1.083   .     S
C531   C532    1.393   .     S
C531   H334    1.083   .     S
C532   C533    1.397   .     D
C532   C541    1.522   .     S
C533   C534    1.385   .     S
C533   H335    1.085   .     S
C534   H336    1.084   .     S
C535   C536    1.400   .     S
C535   C540    1.379   .     D
C535   H337    1.085   .     S
C536   C537    1.390   .     D
C536   C541    1.534   1_554 S
C537   C538    1.388   .     S
C537   H338    1.084   .     S
C538   C539    1.396   .     D
C538   H339    1.085   .     S
C539   C540    1.398   .     S
C540   H340    1.084   .     S
C541   C536    1.534   1_556 S
C541   C542    1.545   1_556 S
C541   C553    1.524   .     S
C542   C541    1.545   1_554 S
C542   C543    1.392   .     S
C542   C547    1.402   .     D
C543   C544    1.389   .     D
C543   H341    1.083   .     S
C544   C545    1.394   .     S
C544   H342    1.085   .     S
C545   C546    1.398   .     D
C546   C547    1.382   .     S
C546   H445    1.085   .     S
C547   H343    1.084   .     S
C548   C549    1.390   .     S
C548   C553    1.395   .     D
C548   H344    1.085   .     S
C549   C550    1.390   1_455 D
C549   H345    1.084   .     S
C550   C549    1.390   1_655 D
C550   C551    1.396   1_556 S
C550   C554    1.528   .     S
C551   C550    1.396   1_554 S
C551   C552    1.382   1_655 D
C551   H346    1.084   .     S
C552   C551    1.382   1_455 D
C552   C553    1.392   1_554 S
C552   H347    1.082   .     S
C553   C552    1.392   1_556 S
C554   C558    1.524   1_556 S
C554   C561    1.526   .     S
C554   C572    1.529   .     S
C555   C556    1.395   .     S
C555   C560    1.395   .     D
C556   C557    1.386   .     D
C556   H348    1.084   .     S
C557   C558    1.393   .     S
C557   H349    1.084   .     S
C558   C554    1.524   1_554 S
C558   C559    1.395   .     D
C559   C560    1.381   .     S
C559   H350    1.084   .     S
C560   H351    1.084   .     S
C561   C562    1.395   .     D
C561   C566    1.392   .     S
C562   C563    1.380   .     S
C562   H352    1.084   .     S
C563   C564    1.396   .     D
C563   H353    1.084   .     S
C564   C565    1.389   .     S
C565   C566    1.390   .     D
C565   H354    1.084   1_556 S
C566   H355    1.084   1_556 S
C567   C568    1.381   .     S
C567   C572    1.398   .     D
C567   H356    1.084   .     S
C568   C569    1.396   .     D
C568   H357    1.085   .     S
C569   C570    1.393   .     S
C570   C571    1.391   .     D
C570   H358    1.085   .     S
C571   C572    1.392   .     S
C571   H359    1.084   .     S
H354   C565    1.084   1_554 S
H355   C566    1.084   1_554 S
C573   C574    1.399   .     S
C573   C578    1.396   .     D
C574   C575    1.386   1_556 D
C574   H360    1.085   .     S
C575   C574    1.386   1_554 D
C575   C576    1.397   .     S
C575   H361    1.085   .     S
C576   C577    1.394   1_554 D
C576   C585    1.530   .     S
C577   C576    1.394   1_556 D
C577   C578    1.385   .     S
C577   H362    1.084   .     S
C578   H363    1.084   .     S
C579   C580    1.389   1_565 D
C579   C584    1.394   .     S
C579   H364    1.084   1_565 S
C580   C579    1.389   1_545 D
C580   C581    1.400   1_545 S
C580   C585    1.532   .     S
C581   C580    1.400   1_565 S
C581   C582    1.376   .     D
C581   H365    1.084   1_565 S
C582   C583    1.399   .     S
C582   H366    1.084   .     S
C583   C584    1.394   .     D
C584   H367    1.085   .     S
C585   C586    1.538   .     S
C585   C597    1.529   .     S
C586   C587    1.395   .     D
C586   C591    1.397   .     S
C587   C588    1.380   .     S
C587   H368    1.082   .     S
C588   C589    1.397   .     D
C588   H369    1.084   .     S
C589   C590    1.395   .     S
C590   C591    1.392   .     D
C590   H370    1.085   .     S
C591   H371    1.085   .     S
C592   C593    1.384   1_654 D
C592   C597    1.398   .     S
C592   H372    1.085   1_554 S
C593   C592    1.384   1_456 D
C593   C594    1.391   1_556 S
C593   H373    1.083   1_545 S
C594   C593    1.391   1_554 S
C594   C595    1.396   .     D
C594   C598    1.525   .     S
C595   C596    1.389   .     S
C595   H374    1.085   .     S
C596   C597    1.389   1_455 D
C596   H375    1.084   .     S
C597   C596    1.389   1_655 D
C598   C602    1.527   .     S
C598   C605    1.533   1_554 S
C598   C616    1.538   1_544 S
C599   C600    1.397   .     S
C599   C604    1.397   1_565 D
C600   C601    1.385   .     D
C600   H376    1.084   .     S
C601   C602    1.397   1_565 S
C601   H377    1.085   .     S
C602   C601    1.397   1_545 S
C602   C603    1.392   .     D
C603   C604    1.385   .     S
C603   H378    1.083   .     S
C604   C599    1.397   1_545 D
C604   H379    1.085   .     S
C605   C598    1.533   1_556 S
C605   C606    1.391   .     D
C605   C610    1.398   .     S
C606   C607    1.385   .     S
C606   H380    1.083   .     S
C607   C608    1.394   .     D
C607   H381    1.085   .     S
C608   C609    1.394   .     S
C608   C657    1.474   .     S
C609   C610    1.384   .     D
C609   H382    1.085   .     S
C610   H383    1.085   .     S
C611   C612    1.387   .     S
C611   C616    1.394   .     D
C611   H384    1.083   1_556 S
C612   C613    1.396   .     D
C612   H385    1.085   .     S
C613   C614    1.399   .     S
C614   C615    1.386   .     D
C614   H386    1.085   .     S
C615   C616    1.399   .     S
C615   H387    1.085   1_565 S
C616   C598    1.538   1_566 S
H364   C579    1.084   1_545 S
H365   C581    1.084   1_545 S
H372   C592    1.085   1_556 S
H373   C593    1.083   1_565 S
H384   C611    1.083   1_554 S
H387   C615    1.085   1_545 S
C617   C618    1.399   .     S
C617   C622    1.397   .     D
C618   C619    1.385   .     D
C618   H388    1.084   .     S
C619   C620    1.399   .     S
C619   H389    1.085   .     S
C620   C621    1.394   .     D
C620   C629    1.533   .     S
C621   C622    1.384   .     S
C621   H390    1.083   .     S
C622   H391    1.084   .     S
C623   C624    1.399   .     D
C623   C628    1.382   .     S
C623   H392    1.085   .     S
C624   C625    1.389   .     S
C624   C629    1.522   .     S
C625   C626    1.389   .     D
C625   H393    1.084   .     S
C626   C627    1.397   .     S
C626   H394    1.085   .     S
C627   C628    1.397   .     D
C628   H395    1.084   .     S
C629   C630    1.544   .     S
C629   C641    1.527   .     S
C630   C631    1.401   .     D
C630   C635    1.393   .     S
C631   C632    1.387   .     S
C631   H396    1.084   .     S
C632   C633    1.397   .     D
C632   H397    1.084   .     S
C633   C634    1.396   .     S
C634   C635    1.383   .     D
C634   H398    1.085   .     S
C635   H399    1.081   .     S
C636   C637    1.385   .     D
C636   C641    1.390   .     S
C636   H400    1.083   .     S
C637   C638    1.393   .     S
C637   H401    1.083   .     S
C638   C639    1.393   .     D
C638   C642    1.528   .     S
C639   C640    1.385   .     S
C639   H402    1.083   .     S
C640   C641    1.395   .     D
C640   H403    1.084   .     S
C642   C646    1.542   .     S
C642   C649    1.529   .     S
C642   C660    1.531   .     S
C643   C644    1.398   .     S
C643   C648    1.398   .     D
C644   C645    1.383   .     D
C644   H404    1.084   .     S
C645   C646    1.397   .     S
C645   H405    1.083   .     S
C646   C647    1.393   .     D
C647   C648    1.384   .     S
C647   H406    1.082   .     S
C648   H407    1.084   .     S
C649   C650    1.394   .     D
C649   C654    1.398   .     S
C650   C651    1.384   .     S
C650   H408    1.083   .     S
C651   C652    1.394   .     D
C651   H409    1.084   .     S
C652   C653    1.395   .     S
C653   C654    1.386   .     D
C653   H410    1.085   .     S
C654   H411    1.084   .     S
C655   C656    1.383   .     D
C655   C660    1.398   .     S
C655   H412    1.084   .     S
C656   C657    1.395   .     S
C656   H446    1.084   .     S
C657   C658    1.393   .     D
C658   C659    1.387   .     S
C658   H413    1.085   .     S
C659   C660    1.392   .     D
C659   H414    1.084   .     S
C661   C662    1.396   .     S
C661   C666    1.400   .     D
C662   C663    1.383   .     D
C662   H447    1.084   .     S
C663   C664    1.397   .     S
C663   H415    1.083   .     S
C664   C665    1.396   .     D
C664   C673    1.532   .     S
C665   C666    1.387   .     S
C665   H416    1.085   .     S
C666   H417    1.084   .     S
C667   C668    1.389   .     S
C667   C672    1.388   1_554 D
C667   H418    1.083   .     S
C668   C669    1.400   1_554 D
C668   C673    1.530   .     S
C669   C668    1.400   1_556 D
C669   C670    1.380   .     S
C669   H419    1.085   .     S
C670   C671    1.396   .     D
C670   H420    1.084   .     S
C671   C672    1.392   .     S
C672   C667    1.388   1_556 D
C672   H421    1.085   .     S
C673   C674    1.535   .     S
C673   C685    1.525   .     S
C674   C675    1.389   .     D
C674   C679    1.399   .     S
C675   C676    1.391   .     S
C675   H422    1.084   .     S
C676   C677    1.396   .     D
C676   H423    1.085   .     S
C677   C678    1.399   .     S
C678   C679    1.377   .     D
C678   H424    1.083   .     S
C679   H425    1.084   .     S
C680   C681    1.387   1_545 D
C680   C685    1.394   1_556 S
C680   H426    1.083   .     S
C681   C680    1.387   1_565 D
C681   C682    1.394   .     S
C681   H427    1.084   .     S
C682   C683    1.396   1_556 D
C682   C686    1.535   .     S
C683   C682    1.396   1_554 D
C683   C684    1.385   .     S
C683   H428    1.082   .     S
C684   C685    1.392   1_565 D
C684   H429    1.085   .     S
C685   C684    1.392   1_545 D
C685   C680    1.394   1_554 S
C686   C690    1.545   .     S
C686   C693    1.532   .     S
C686   C704    1.528   .     S
C687   C688    1.397   .     S
C687   C692    1.398   .     D
C688   C689    1.385   .     D
C688   H430    1.084   .     S
C689   C690    1.395   .     S
C689   H431    1.083   .     S
C690   C691    1.397   .     D
C691   C692    1.386   .     S
C691   H432    1.084   .     S
C692   H433    1.084   .     S
C693   C694    1.398   1_556 S
C693   C698    1.393   .     D
C694   C693    1.398   1_554 S
C694   C695    1.386   .     D
C694   H434    1.084   .     S
C695   C696    1.397   .     S
C695   H435    1.084   .     S
C696   C697    1.396   .     D
C697   C698    1.382   1_554 S
C697   H436    1.084   .     S
C698   C697    1.382   1_556 S
C698   H437    1.083   .     S
C699   C700    1.383   .     D
C699   C704    1.399   .     S
C699   H438    1.084   .     S
C700   C701    1.398   .     S
C700   H439    1.085   .     S
C701   C702    1.394   .     D
C702   C703    1.389   .     S
C702   H440    1.085   .     S
C703   C704    1.393   .     D
C703   H441    1.083   .     S
