data_C_crs_opt
_audit_creation_date              2023-12-03
_audit_creation_method            'Materials Studio'
_symmetry_space_group_name_H-M    'P1'
_symmetry_Int_Tables_number       1
_symmetry_cell_setting            triclinic
loop_
_symmetry_equiv_pos_as_xyz
  x,y,z
_cell_length_a                    35.4580
_cell_length_b                    32.4020
_cell_length_c                    34.4216
_cell_angle_alpha                 88.3439
_cell_angle_beta                  89.3668
_cell_angle_gamma                 90.0939
loop_
_atom_site_label
_atom_site_type_symbol
_atom_site_fract_x
_atom_site_fract_y
_atom_site_fract_z
_atom_site_U_iso_or_equiv
_atom_site_adp_type
_atom_site_occupancy
H1     H     0.88232   0.99287   0.06720   0.00000  Uiso   1.00
H2     H     0.80360   0.92588   0.14799   0.00000  Uiso   1.00
H3     H     0.84075   0.94571   0.09152   0.00000  Uiso   1.00
C1     C     0.96054   0.36581   0.48843   0.00000  Uiso   1.00
C2     C     0.96050   0.33341   0.51555   0.00000  Uiso   1.00
C3     C     0.97878   0.27852   0.58406   0.00000  Uiso   1.00
C4     C     0.97897   0.24744   0.61240   0.00000  Uiso   1.00
H4     H     0.97074   0.30951   0.59185   0.00000  Uiso   1.00
H5     H     0.97054   0.25444   0.64187   0.00000  Uiso   1.00
H6     H     0.93739   0.38759   0.48885   0.00000  Uiso   1.00
H7     H     0.93727   0.33048   0.53621   0.00000  Uiso   1.00
H8     H     0.27836   0.91749   0.63104   0.00000  Uiso   1.00
C5     C     0.11020   0.26421   0.06093   0.00000  Uiso   1.00
C6     C     0.08279   0.24133   0.04246   0.00000  Uiso   1.00
C7     C     0.09287   0.20770   0.02052   0.00000  Uiso   1.00
C8     C     0.13047   0.19604   0.01656   0.00000  Uiso   1.00
C9     C     0.15798   0.22180   0.03164   0.00000  Uiso   1.00
C10    C     0.14807   0.25480   0.05414   0.00000  Uiso   1.00
C11    C     0.17535   0.13552   0.01504   0.00000  Uiso   1.00
C12    C     0.19939   0.10974   0.99439   0.00000  Uiso   1.00
C13    C     0.23434   0.09872   0.00894   0.00000  Uiso   1.00
C14    C     0.24611   0.11276   0.04492   0.00000  Uiso   1.00
C15    C     0.21894   0.13134   0.06838   0.00000  Uiso   1.00
C16    C     0.18395   0.14208   0.05380   0.00000  Uiso   1.00
H9     H     0.05321   0.24898   0.04606   0.00000  Uiso   1.00
H10    H     0.07072   0.19031   0.00696   0.00000  Uiso   1.00
H11    H     0.18761   0.21556   0.02644   0.00000  Uiso   1.00
H12    H     0.16994   0.27363   0.06652   0.00000  Uiso   1.00
H13    H     0.19179   0.10027   0.96553   0.00000  Uiso   1.00
H14    H     0.25319   0.08056   0.99128   0.00000  Uiso   1.00
H15    H     0.22591   0.14024   0.09756   0.00000  Uiso   1.00
H16    H     0.16427   0.15803   0.07239   0.00000  Uiso   1.00
C17    C     0.98987   0.40644   0.43123   0.00000  Uiso   1.00
C18    C     0.04547   0.51690   0.47052   0.00000  Uiso   1.00
C19    C     0.04764   0.48021   0.49260   0.00000  Uiso   1.00
C20    C     0.02921   0.44477   0.48117   0.00000  Uiso   1.00
C21    C     0.00838   0.44496   0.44717   0.00000  Uiso   1.00
C22    C     0.00553   0.48198   0.42550   0.00000  Uiso   1.00
C23    C     0.02351   0.51739   0.43705   0.00000  Uiso   1.00
C24    C     0.01176   0.39378   0.39487   0.00000  Uiso   1.00
C25    C     0.99797   0.36543   0.36975   0.00000  Uiso   1.00
C26    C     0.01351   0.35561   0.33488   0.00000  Uiso   1.00
C27    C     0.04674   0.37620   0.32252   0.00000  Uiso   1.00
C28    C     0.06332   0.40269   0.34881   0.00000  Uiso   1.00
C29    C     0.04693   0.41072   0.38447   0.00000  Uiso   1.00
C30    C     0.01859   0.34142   0.46168   0.00000  Uiso   1.00
C31    C     0.01849   0.30878   0.48862   0.00000  Uiso   1.00
C32    C     0.98948   0.30429   0.51614   0.00000  Uiso   1.00
C33    C     0.98957   0.37043   0.46102   0.00000  Uiso   1.00
H17    H     0.06395   0.47912   0.51908   0.00000  Uiso   1.00
H18    H     0.03170   0.41668   0.49883   0.00000  Uiso   1.00
H19    H     0.98945   0.48284   0.39886   0.00000  Uiso   1.00
H20    H     0.02149   0.54544   0.41922   0.00000  Uiso   1.00
H21    H     0.00046   0.33292   0.31681   0.00000  Uiso   1.00
H22    H     0.08916   0.41892   0.34092   0.00000  Uiso   1.00
H23    H     0.06091   0.43174   0.40359   0.00000  Uiso   1.00
H24    H     0.04174   0.34423   0.44092   0.00000  Uiso   1.00
H25    H     0.04164   0.28694   0.48860   0.00000  Uiso   1.00
C34    C     0.50479   0.05240   0.46897   0.00000  Uiso   1.00
C35    C     0.47915   0.03568   0.49614   0.00000  Uiso   1.00
C36    C     0.44242   0.02663   0.48568   0.00000  Uiso   1.00
C37    C     0.43015   0.03465   0.44795   0.00000  Uiso   1.00
C38    C     0.45664   0.04817   0.42007   0.00000  Uiso   1.00
C39    C     0.49316   0.05724   0.43039   0.00000  Uiso   1.00
H26    H     0.48767   0.02985   0.52595   0.00000  Uiso   1.00
H27    H     0.42322   0.01395   0.50766   0.00000  Uiso   1.00
H28    H     0.44830   0.05276   0.39004   0.00000  Uiso   1.00
H29    H     0.51250   0.06963   0.40839   0.00000  Uiso   1.00
C40    C     0.39168   0.10283   0.41452   0.00000  Uiso   1.00
C41    C     0.37625   0.06372   0.40966   0.00000  Uiso   1.00
C42    C     0.34863   0.05949   0.38151   0.00000  Uiso   1.00
C43    C     0.34183   0.09121   0.35460   0.00000  Uiso   1.00
C44    C     0.36130   0.12857   0.35635   0.00000  Uiso   1.00
C45    C     0.38429   0.13489   0.38830   0.00000  Uiso   1.00
C46    C     0.38984   0.02691   0.43436   0.00000  Uiso   1.00
C47    C     0.36162   0.02165   0.46790   0.00000  Uiso   1.00
C48    C     0.33489   0.99007   0.46931   0.00000  Uiso   1.00
C49    C     0.31158   0.98408   0.50157   0.00000  Uiso   1.00
C50    C     0.31387   0.00995   0.53320   0.00000  Uiso   1.00
C51    C     0.33824   0.04385   0.53014   0.00000  Uiso   1.00
C52    C     0.36154   0.04970   0.49791   0.00000  Uiso   1.00
H30    H     0.41113   0.10810   0.43794   0.00000  Uiso   1.00
H31    H     0.33329   0.03066   0.37949   0.00000  Uiso   1.00
H32    H     0.32187   0.08647   0.33149   0.00000  Uiso   1.00
H33    H     0.39838   0.16433   0.39133   0.00000  Uiso   1.00
H34    H     0.33262   0.96915   0.44543   0.00000  Uiso   1.00
H35    H     0.29158   0.95871   0.50217   0.00000  Uiso   1.00
H36    H     0.34005   0.06509   0.55383   0.00000  Uiso   1.00
H37    H     0.38060   0.07593   0.49664   0.00000  Uiso   1.00
C53    C     0.79467   0.95260   0.13093   0.00000  Uiso   1.00
C54    C     0.76222   0.97427   0.14078   0.00000  Uiso   1.00
C55    C     0.75335   0.00935   0.11815   0.00000  Uiso   1.00
C56    C     0.77492   0.02095   0.08577   0.00000  Uiso   1.00
C57    C     0.80659   0.99813   0.07517   0.00000  Uiso   1.00
C58    C     0.81634   0.96418   0.09877   0.00000  Uiso   1.00
C59    C     0.73630   0.96061   0.17482   0.00000  Uiso   1.00
C60    C     0.72958   0.99846   0.19958   0.00000  Uiso   1.00
C61    C     0.69332   0.01340   0.20620   0.00000  Uiso   1.00
C62    C     0.68730   0.04811   0.22780   0.00000  Uiso   1.00
C63    C     0.71733   0.06955   0.24368   0.00000  Uiso   1.00
C64    C     0.75380   0.05567   0.23596   0.00000  Uiso   1.00
C65    C     0.75976   0.02086   0.21409   0.00000  Uiso   1.00
H38    H     0.72909   0.02791   0.12582   0.00000  Uiso   1.00
H39    H     0.76706   0.04822   0.06874   0.00000  Uiso   1.00
H40    H     0.66893   0.99837   0.19430   0.00000  Uiso   1.00
H41    H     0.65867   0.05903   0.23177   0.00000  Uiso   1.00
H42    H     0.77787   0.07191   0.24735   0.00000  Uiso   1.00
H43    H     0.78848   0.01132   0.20796   0.00000  Uiso   1.00
C66    C     0.76967   0.34957   0.34703   0.00000  Uiso   1.00
C67    C     0.76461   0.38913   0.33085   0.00000  Uiso   1.00
C68    C     0.78659   0.42210   0.34238   0.00000  Uiso   1.00
C69    C     0.81412   0.41668   0.37057   0.00000  Uiso   1.00
C70    C     0.82023   0.37665   0.38543   0.00000  Uiso   1.00
C71    C     0.79895   0.34375   0.37349   0.00000  Uiso   1.00
H44    H     0.74238   0.39477   0.30997   0.00000  Uiso   1.00
H45    H     0.78127   0.45261   0.32984   0.00000  Uiso   1.00
H46    H     0.84135   0.37102   0.40747   0.00000  Uiso   1.00
H47    H     0.80485   0.31318   0.38553   0.00000  Uiso   1.00
C72    C     0.78764   0.43583   0.44409   0.00000  Uiso   1.00
C73    C     0.81209   0.46408   0.42578   0.00000  Uiso   1.00
C74    C     0.81774   0.50175   0.44371   0.00000  Uiso   1.00
C75    C     0.80084   0.51014   0.47917   0.00000  Uiso   1.00
C76    C     0.77724   0.48115   0.49778   0.00000  Uiso   1.00
C77    C     0.77049   0.44418   0.47923   0.00000  Uiso   1.00
C78    C     0.83440   0.45277   0.38908   0.00000  Uiso   1.00
C79    C     0.83859   0.49027   0.36120   0.00000  Uiso   1.00
C80    C     0.87053   0.49501   0.33747   0.00000  Uiso   1.00
C81    C     0.87728   0.53132   0.31642   0.00000  Uiso   1.00
C82    C     0.85242   0.56466   0.31837   0.00000  Uiso   1.00
C83    C     0.81876   0.55854   0.33918   0.00000  Uiso   1.00
C84    C     0.81189   0.52188   0.35993   0.00000  Uiso   1.00
C85    C     0.89213   0.45587   0.43326   0.00000  Uiso   1.00
C86    C     0.92889   0.44537   0.44254   0.00000  Uiso   1.00
C87    C     0.94918   0.41737   0.42055   0.00000  Uiso   1.00
C88    C     0.93086   0.40007   0.38952   0.00000  Uiso   1.00
C89    C     0.89465   0.41151   0.37933   0.00000  Uiso   1.00
C90    C     0.87427   0.43953   0.40135   0.00000  Uiso   1.00
H48    H     0.78180   0.40630   0.43152   0.00000  Uiso   1.00
H49    H     0.83582   0.52511   0.43006   0.00000  Uiso   1.00
H50    H     0.80619   0.53954   0.49237   0.00000  Uiso   1.00
H51    H     0.75250   0.42083   0.49302   0.00000  Uiso   1.00
H52    H     0.89123   0.47055   0.33587   0.00000  Uiso   1.00
H53    H     0.90263   0.53382   0.29860   0.00000  Uiso   1.00
H54    H     0.79812   0.58315   0.34047   0.00000  Uiso   1.00
H55    H     0.78574   0.51861   0.37636   0.00000  Uiso   1.00
H56    H     0.87772   0.47748   0.45166   0.00000  Uiso   1.00
H57    H     0.94178   0.45964   0.46723   0.00000  Uiso   1.00
H58    H     0.94588   0.37721   0.37237   0.00000  Uiso   1.00
H59    H     0.88225   0.39808   0.35396   0.00000  Uiso   1.00
C91    C     0.39535   0.98537   0.37148   0.00000  Uiso   1.00
C92    C     0.39950   0.94786   0.35343   0.00000  Uiso   1.00
C93    C     0.40450   0.91123   0.37498   0.00000  Uiso   1.00
C94    C     0.40794   0.91395   0.41509   0.00000  Uiso   1.00
C95    C     0.40280   0.95115   0.43313   0.00000  Uiso   1.00
C96    C     0.39470   0.98725   0.41183   0.00000  Uiso   1.00
C97    C     0.40446   0.87014   0.35405   0.00000  Uiso   1.00
C98    C     0.29164   0.83211   0.32288   0.00000  Uiso   1.00
C99    C     0.32349   0.80901   0.31314   0.00000  Uiso   1.00
C100   C     0.35923   0.82248   0.32215   0.00000  Uiso   1.00
C101   C     0.36457   0.85994   0.34045   0.00000  Uiso   1.00
C102   C     0.33298   0.88368   0.34881   0.00000  Uiso   1.00
C103   C     0.29697   0.86989   0.34034   0.00000  Uiso   1.00
C104   C     0.41354   0.83461   0.38277   0.00000  Uiso   1.00
C105   C     0.44542   0.80973   0.38154   0.00000  Uiso   1.00
C106   C     0.45221   0.78013   0.41070   0.00000  Uiso   1.00
C107   C     0.42717   0.77466   0.44185   0.00000  Uiso   1.00
C108   C     0.39392   0.79780   0.44177   0.00000  Uiso   1.00
C109   C     0.38717   0.82689   0.41267   0.00000  Uiso   1.00
C110   C     0.42032   0.87453   0.28155   0.00000  Uiso   1.00
C111   C     0.44597   0.87850   0.25101   0.00000  Uiso   1.00
C112   C     0.48448   0.88171   0.25797   0.00000  Uiso   1.00
C113   C     0.49650   0.88260   0.29637   0.00000  Uiso   1.00
C114   C     0.47064   0.87973   0.32686   0.00000  Uiso   1.00
C115   C     0.43225   0.87415   0.31999   0.00000  Uiso   1.00
H60    H     0.39219   0.01302   0.35338   0.00000  Uiso   1.00
H61    H     0.39847   0.94726   0.32197   0.00000  Uiso   1.00
H62    H     0.41435   0.88702   0.43314   0.00000  Uiso   1.00
H63    H     0.40495   0.95191   0.46451   0.00000  Uiso   1.00
H64    H     0.32007   0.77932   0.29982   0.00000  Uiso   1.00
H65    H     0.38336   0.80318   0.31578   0.00000  Uiso   1.00
H66    H     0.33596   0.91298   0.36285   0.00000  Uiso   1.00
H67    H     0.27284   0.88875   0.34775   0.00000  Uiso   1.00
H68    H     0.46568   0.81305   0.35786   0.00000  Uiso   1.00
H69    H     0.47777   0.76186   0.40938   0.00000  Uiso   1.00
H70    H     0.37302   0.79270   0.46464   0.00000  Uiso   1.00
H71    H     0.36108   0.84429   0.41338   0.00000  Uiso   1.00
H72    H     0.39062   0.87198   0.27494   0.00000  Uiso   1.00
H73    H     0.43592   0.87852   0.22137   0.00000  Uiso   1.00
H74    H     0.52623   0.88636   0.30248   0.00000  Uiso   1.00
H75    H     0.48054   0.88218   0.35641   0.00000  Uiso   1.00
C116   C     0.79770   0.85617   0.22341   0.00000  Uiso   1.00
C117   C     0.79524   0.89202   0.24459   0.00000  Uiso   1.00
C118   C     0.77408   0.92554   0.23106   0.00000  Uiso   1.00
C119   C     0.75470   0.92387   0.19625   0.00000  Uiso   1.00
C120   C     0.75444   0.88635   0.17705   0.00000  Uiso   1.00
C121   C     0.77573   0.85326   0.19014   0.00000  Uiso   1.00
H76    H     0.81121   0.89473   0.27109   0.00000  Uiso   1.00
H77    H     0.77374   0.95338   0.24776   0.00000  Uiso   1.00
H78    H     0.73851   0.88360   0.15053   0.00000  Uiso   1.00
H79    H     0.77604   0.82503   0.17396   0.00000  Uiso   1.00
C122   C     0.68596   0.94886   0.12251   0.00000  Uiso   1.00
C123   C     0.65066   0.93451   0.11229   0.00000  Uiso   1.00
C124   C     0.62630   0.91569   0.13963   0.00000  Uiso   1.00
C125   C     0.63879   0.91144   0.17770   0.00000  Uiso   1.00
C126   C     0.67413   0.92552   0.18789   0.00000  Uiso   1.00
C127   C     0.69828   0.94477   0.16060   0.00000  Uiso   1.00
C128   C     0.58858   0.89816   0.12607   0.00000  Uiso   1.00
C129   C     0.54363   0.98380   0.04549   0.00000  Uiso   1.00
C130   C     0.54207   0.94542   0.03926   0.00000  Uiso   1.00
C131   C     0.55529   0.91319   0.06147   0.00000  Uiso   1.00
C132   C     0.57245   0.92814   0.09512   0.00000  Uiso   1.00
C133   C     0.57414   0.97072   0.10211   0.00000  Uiso   1.00
C134   C     0.55963   0.00151   0.07697   0.00000  Uiso   1.00
C135   C     0.56049   0.89352   0.16007   0.00000  Uiso   1.00
C136   C     0.56517   0.86196   0.18814   0.00000  Uiso   1.00
C137   C     0.54129   0.85831   0.22026   0.00000  Uiso   1.00
C138   C     0.51118   0.88545   0.22472   0.00000  Uiso   1.00
C139   C     0.50574   0.91615   0.19618   0.00000  Uiso   1.00
C140   C     0.53021   0.92033   0.16465   0.00000  Uiso   1.00
C141   C     0.56690   0.82720   0.10494   0.00000  Uiso   1.00
C142   C     0.57271   0.79015   0.08649   0.00000  Uiso   1.00
C143   C     0.60791   0.78081   0.07063   0.00000  Uiso   1.00
C144   C     0.63732   0.80880   0.07541   0.00000  Uiso   1.00
C145   C     0.63151   0.84551   0.09406   0.00000  Uiso   1.00
C146   C     0.59604   0.85588   0.10852   0.00000  Uiso   1.00
H80    H     0.70375   0.96302   0.10007   0.00000  Uiso   1.00
H81    H     0.64207   0.93828   0.08227   0.00000  Uiso   1.00
H82    H     0.62108   0.89727   0.20020   0.00000  Uiso   1.00
H83    H     0.68306   0.92159   0.21781   0.00000  Uiso   1.00
H84    H     0.47798   0.01117   0.07239   0.00000  Uiso   1.00
H85    H     0.55353   0.88079   0.05515   0.00000  Uiso   1.00
H86    H     0.58754   0.98064   0.12843   0.00000  Uiso   1.00
H87    H     0.56140   0.03403   0.08296   0.00000  Uiso   1.00
H88    H     0.58760   0.83957   0.18478   0.00000  Uiso   1.00
H89    H     0.54575   0.83367   0.24169   0.00000  Uiso   1.00
H90    H     0.48238   0.93749   0.19886   0.00000  Uiso   1.00
H91    H     0.52497   0.94492   0.14344   0.00000  Uiso   1.00
H92    H     0.53903   0.83398   0.11635   0.00000  Uiso   1.00
H93    H     0.54931   0.76890   0.08357   0.00000  Uiso   1.00
H94    H     0.66531   0.80177   0.06447   0.00000  Uiso   1.00
H95    H     0.65534   0.86610   0.09683   0.00000  Uiso   1.00
C147   C     0.61582   0.74380   0.04792   0.00000  Uiso   1.00
C148   C     0.60559   0.70383   0.05991   0.00000  Uiso   1.00
C149   C     0.61736   0.67013   0.03892   0.00000  Uiso   1.00
C150   C     0.63927   0.67522   0.00514   0.00000  Uiso   1.00
C151   C     0.64788   0.71538   0.99240   0.00000  Uiso   1.00
C152   C     0.63645   0.74898   0.01336   0.00000  Uiso   1.00
C153   C     0.69316   0.62585   0.00383   0.00000  Uiso   1.00
C154   C     0.71945   0.60251   0.98335   0.00000  Uiso   1.00
C155   C     0.75479   0.59427   0.99831   0.00000  Uiso   1.00
C156   C     0.76480   0.60866   0.03463   0.00000  Uiso   1.00
C157   C     0.73762   0.62925   0.05629   0.00000  Uiso   1.00
C158   C     0.70236   0.63774   0.04107   0.00000  Uiso   1.00
H96    H     0.58933   0.69877   0.08650   0.00000  Uiso   1.00
H97    H     0.60981   0.63934   0.04952   0.00000  Uiso   1.00
H98    H     0.66420   0.72114   0.96603   0.00000  Uiso   1.00
H99    H     0.64383   0.77979   0.00269   0.00000  Uiso   1.00
H100   H     0.71261   0.59173   0.95473   0.00000  Uiso   1.00
H101   H     0.77490   0.57687   0.98141   0.00000  Uiso   1.00
H102   H     0.74456   0.64036   0.08476   0.00000  Uiso   1.00
H103   H     0.68243   0.65488   0.05838   0.00000  Uiso   1.00
C159   C     0.24553   0.10887   0.78770   0.00000  Uiso   1.00
C160   C     0.25218   0.14844   0.77196   0.00000  Uiso   1.00
C161   C     0.23836   0.18315   0.79001   0.00000  Uiso   1.00
C162   C     0.21727   0.17987   0.82438   0.00000  Uiso   1.00
C163   C     0.21425   0.14050   0.84199   0.00000  Uiso   1.00
C164   C     0.22826   0.10585   0.82430   0.00000  Uiso   1.00
H104   H     0.26654   0.15228   0.74409   0.00000  Uiso   1.00
H105   H     0.24313   0.21290   0.77568   0.00000  Uiso   1.00
H106   H     0.19932   0.13587   0.86938   0.00000  Uiso   1.00
H107   H     0.22445   0.07593   0.83875   0.00000  Uiso   1.00
C165   C     0.14276   0.17437   0.80248   0.00000  Uiso   1.00
C166   C     0.15758   0.21303   0.81088   0.00000  Uiso   1.00
C167   C     0.14057   0.24766   0.79385   0.00000  Uiso   1.00
C168   C     0.11165   0.24361   0.76733   0.00000  Uiso   1.00
C169   C     0.09841   0.20479   0.75737   0.00000  Uiso   1.00
C170   C     0.11400   0.17019   0.77619   0.00000  Uiso   1.00
C171   C     0.19142   0.21501   0.83831   0.00000  Uiso   1.00
C172   C     0.21056   0.25751   0.83720   0.00000  Uiso   1.00
C173   C     0.21833   0.27729   0.87170   0.00000  Uiso   1.00
C174   C     0.23772   0.31428   0.87176   0.00000  Uiso   1.00
C175   C     0.24946   0.33394   0.83714   0.00000  Uiso   1.00
C176   C     0.23980   0.31598   0.80240   0.00000  Uiso   1.00
C177   C     0.22072   0.27840   0.80255   0.00000  Uiso   1.00
C178   C     0.14054   0.20416   0.89108   0.00000  Uiso   1.00
C179   C     0.12983   0.19045   0.92814   0.00000  Uiso   1.00
C180   C     0.15645   0.17668   0.95503   0.00000  Uiso   1.00
C181   C     0.19442   0.18171   0.94520   0.00000  Uiso   1.00
C182   C     0.20512   0.19464   0.90803   0.00000  Uiso   1.00
C183   C     0.17831   0.20452   0.87984   0.00000  Uiso   1.00
C184   C     0.14313   0.15812   0.99432   0.00000  Uiso   1.00
C185   C     0.08558   0.11805   0.01873   0.00000  Uiso   1.00
C186   C     0.05307   0.09578   0.01185   0.00000  Uiso   1.00
C187   C     0.04571   0.08128   0.97485   0.00000  Uiso   1.00
C188   C     0.07379   0.08589   0.94633   0.00000  Uiso   1.00
C189   C     0.10613   0.10836   0.95326   0.00000  Uiso   1.00
C190   C     0.11117   0.12736   0.98866   0.00000  Uiso   1.00
H108   H     0.15404   0.14664   0.81627   0.00000  Uiso   1.00
H109   H     0.14975   0.27841   0.80103   0.00000  Uiso   1.00
H110   H     0.09919   0.27125   0.75444   0.00000  Uiso   1.00
H111   H     0.10430   0.13948   0.76954   0.00000  Uiso   1.00
H112   H     0.20947   0.26415   0.89957   0.00000  Uiso   1.00
H113   H     0.24379   0.32827   0.89925   0.00000  Uiso   1.00
H114   H     0.24771   0.33083   0.77486   0.00000  Uiso   1.00
H115   H     0.21362   0.26572   0.77476   0.00000  Uiso   1.00
H116   H     0.11890   0.21370   0.87074   0.00000  Uiso   1.00
H117   H     0.10007   0.18959   0.93573   0.00000  Uiso   1.00
H118   H     0.21629   0.17464   0.96603   0.00000  Uiso   1.00
H119   H     0.23491   0.19613   0.90061   0.00000  Uiso   1.00
H120   H     0.09036   0.12954   0.04755   0.00000  Uiso   1.00
H121   H     0.03292   0.09024   0.03536   0.00000  Uiso   1.00
H122   H     0.06966   0.07350   0.91775   0.00000  Uiso   1.00
H123   H     0.12687   0.11227   0.93008   0.00000  Uiso   1.00
C191   C     0.29421   0.00013   0.57027   0.00000  Uiso   1.00
C192   C     0.28032   0.03071   0.59427   0.00000  Uiso   1.00
C193   C     0.26716   0.02097   0.63155   0.00000  Uiso   1.00
C194   C     0.26827   0.98052   0.64621   0.00000  Uiso   1.00
C195   C     0.27904   0.94952   0.62101   0.00000  Uiso   1.00
C196   C     0.29198   0.95909   0.58380   0.00000  Uiso   1.00
C197   C     0.28405   0.03354   0.71523   0.00000  Uiso   1.00
C198   C     0.28204   0.06719   0.73916   0.00000  Uiso   1.00
C199   C     0.25178   0.07159   0.76497   0.00000  Uiso   1.00
C200   C     0.22473   0.04016   0.76721   0.00000  Uiso   1.00
C201   C     0.22670   0.00674   0.74313   0.00000  Uiso   1.00
C202   C     0.25555   0.00375   0.71558   0.00000  Uiso   1.00
H124   H     0.27993   0.06265   0.58397   0.00000  Uiso   1.00
H125   H     0.25672   0.04562   0.64936   0.00000  Uiso   1.00
H126   H     0.30174   0.93446   0.56556   0.00000  Uiso   1.00
H127   H     0.30804   0.03088   0.69565   0.00000  Uiso   1.00
H128   H     0.30430   0.09019   0.73767   0.00000  Uiso   1.00
H129   H     0.20104   0.04238   0.78723   0.00000  Uiso   1.00
H130   H     0.20495   0.98322   0.74550   0.00000  Uiso   1.00
C203   C     0.01712   0.18511   0.66841   0.00000  Uiso   1.00
C204   C     0.04293   0.21741   0.66491   0.00000  Uiso   1.00
C205   C     0.06875   0.22437   0.69400   0.00000  Uiso   1.00
C206   C     0.06967   0.19909   0.72745   0.00000  Uiso   1.00
C207   C     0.04386   0.16648   0.73084   0.00000  Uiso   1.00
C208   C     0.01833   0.15945   0.70170   0.00000  Uiso   1.00
C209   C     0.99975   0.19905   0.56551   0.00000  Uiso   1.00
C210   C     0.99983   0.23032   0.53703   0.00000  Uiso   1.00
C211   C     0.98948   0.27052   0.54582   0.00000  Uiso   1.00
C212   C     0.98985   0.20726   0.60371   0.00000  Uiso   1.00
H131   H     0.04352   0.23744   0.63915   0.00000  Uiso   1.00
H132   H     0.08893   0.24938   0.69010   0.00000  Uiso   1.00
H133   H     0.04353   0.14642   0.75661   0.00000  Uiso   1.00
H134   H     0.99912   0.13344   0.70476   0.00000  Uiso   1.00
H135   H     0.00741   0.16804   0.55747   0.00000  Uiso   1.00
H136   H     0.00754   0.22303   0.50743   0.00000  Uiso   1.00
C213   C     0.00862   0.06416   0.96510   0.00000  Uiso   1.00
C214   C     0.97578   0.08186   0.97997   0.00000  Uiso   1.00
C215   C     0.94058   0.06768   0.96957   0.00000  Uiso   1.00
C216   C     0.93687   0.03513   0.94414   0.00000  Uiso   1.00
C217   C     0.96963   0.01802   0.92882   0.00000  Uiso   1.00
C218   C     0.00492   0.03220   0.93914   0.00000  Uiso   1.00
H137   H     0.97775   0.10747   0.99946   0.00000  Uiso   1.00
H138   H     0.91562   0.08204   0.98161   0.00000  Uiso   1.00
H139   H     0.96802   0.99309   0.90860   0.00000  Uiso   1.00
H140   H     0.02982   0.01771   0.92712   0.00000  Uiso   1.00
C219   C     0.89435   0.08534   0.89207   0.00000  Uiso   1.00
C220   C     0.87981   0.04659   0.90241   0.00000  Uiso   1.00
C221   C     0.84922   0.03218   0.88126   0.00000  Uiso   1.00
C222   C     0.83572   0.05415   0.84922   0.00000  Uiso   1.00
C223   C     0.85174   0.09198   0.83786   0.00000  Uiso   1.00
C224   C     0.88035   0.10785   0.86055   0.00000  Uiso   1.00
C225   C     0.89763   0.01898   0.93404   0.00000  Uiso   1.00
C226   C     0.87321   0.01710   0.97111   0.00000  Uiso   1.00
C227   C     0.88974   0.00602   0.00658   0.00000  Uiso   1.00
C228   C     0.86835   0.00129   0.04026   0.00000  Uiso   1.00
C229   C     0.82938   0.00744   0.03992   0.00000  Uiso   1.00
C230   C     0.81302   0.02014   0.00493   0.00000  Uiso   1.00
C231   C     0.83459   0.02486   0.97119   0.00000  Uiso   1.00
H141   H     0.91761   0.09818   0.90794   0.00000  Uiso   1.00
H142   H     0.83671   0.00241   0.88881   0.00000  Uiso   1.00
H143   H     0.81275   0.04154   0.83269   0.00000  Uiso   1.00
H144   H     0.89296   0.13747   0.85258   0.00000  Uiso   1.00
H145   H     0.91992   0.00117   0.00828   0.00000  Uiso   1.00
H146   H     0.78287   0.02554   0.00363   0.00000  Uiso   1.00
H147   H     0.82054   0.03466   0.94472   0.00000  Uiso   1.00
C232   C     0.79721   0.31121   0.69951   0.00000  Uiso   1.00
C233   C     0.77256   0.27885   0.70961   0.00000  Uiso   1.00
C234   C     0.78467   0.23833   0.70906   0.00000  Uiso   1.00
C235   C     0.82176   0.22877   0.69859   0.00000  Uiso   1.00
C236   C     0.84677   0.26113   0.69063   0.00000  Uiso   1.00
C237   C     0.83473   0.30175   0.69125   0.00000  Uiso   1.00
H148   H     0.74324   0.28530   0.71629   0.00000  Uiso   1.00
H149   H     0.76472   0.21360   0.71557   0.00000  Uiso   1.00
H150   H     0.87586   0.25516   0.68277   0.00000  Uiso   1.00
H151   H     0.85481   0.32628   0.68451   0.00000  Uiso   1.00
C238   C     0.80082   0.19545   0.62851   0.00000  Uiso   1.00
C239   C     0.80375   0.16984   0.66177   0.00000  Uiso   1.00
C240   C     0.78040   0.13536   0.66466   0.00000  Uiso   1.00
C241   C     0.75549   0.12639   0.63512   0.00000  Uiso   1.00
C242   C     0.75251   0.15196   0.60195   0.00000  Uiso   1.00
C243   C     0.77571   0.18696   0.59948   0.00000  Uiso   1.00
C244   C     0.83169   0.18338   0.69249   0.00000  Uiso   1.00
C245   C     0.83068   0.15845   0.73082   0.00000  Uiso   1.00
C246   C     0.82696   0.17770   0.76634   0.00000  Uiso   1.00
C247   C     0.83245   0.15603   0.80112   0.00000  Uiso   1.00
C248   C     0.84127   0.11415   0.80144   0.00000  Uiso   1.00
C249   C     0.84350   0.09434   0.76601   0.00000  Uiso   1.00
C250   C     0.83893   0.11632   0.73124   0.00000  Uiso   1.00
C251   C     0.88160   0.16788   0.63997   0.00000  Uiso   1.00
C252   C     0.91891   0.16671   0.62763   0.00000  Uiso   1.00
C253   C     0.94822   0.17633   0.65251   0.00000  Uiso   1.00
C254   C     0.93891   0.18816   0.68994   0.00000  Uiso   1.00
C255   C     0.90161   0.18947   0.70222   0.00000  Uiso   1.00
C256   C     0.87230   0.17966   0.67742   0.00000  Uiso   1.00
C257   C     0.98872   0.17496   0.63687   0.00000  Uiso   1.00
C258   C     0.02635   0.04977   0.61802   0.00000  Uiso   1.00
C259   C     0.04952   0.08365   0.60870   0.00000  Uiso   1.00
C260   C     0.03639   0.12360   0.61247   0.00000  Uiso   1.00
C261   C     0.99962   0.13123   0.62536   0.00000  Uiso   1.00
C262   C     0.97596   0.09740   0.63237   0.00000  Uiso   1.00
C263   C     0.98896   0.05744   0.62853   0.00000  Uiso   1.00
H152   H     0.81810   0.22303   0.62559   0.00000  Uiso   1.00
H153   H     0.78099   0.11505   0.69022   0.00000  Uiso   1.00
H154   H     0.73816   0.09886   0.63832   0.00000  Uiso   1.00
H155   H     0.77369   0.20856   0.57497   0.00000  Uiso   1.00
H156   H     0.82084   0.21041   0.76725   0.00000  Uiso   1.00
H157   H     0.83029   0.17205   0.82829   0.00000  Uiso   1.00
H158   H     0.85056   0.06180   0.76557   0.00000  Uiso   1.00
H159   H     0.84320   0.10069   0.70411   0.00000  Uiso   1.00
H160   H     0.85989   0.15957   0.61972   0.00000  Uiso   1.00
H161   H     0.92524   0.15827   0.59800   0.00000  Uiso   1.00
H162   H     0.96058   0.19685   0.71008   0.00000  Uiso   1.00
H163   H     0.89534   0.19861   0.73166   0.00000  Uiso   1.00
H164   H     0.07870   0.07878   0.60025   0.00000  Uiso   1.00
H165   H     0.05565   0.14921   0.60696   0.00000  Uiso   1.00
H166   H     0.94716   0.10162   0.64227   0.00000  Uiso   1.00
H167   H     0.96981   0.03191   0.63474   0.00000  Uiso   1.00
C264   C     0.04821   0.86007   0.76236   0.00000  Uiso   1.00
C265   C     0.04835   0.83445   0.73043   0.00000  Uiso   1.00
C266   C     0.06964   0.84411   0.69733   0.00000  Uiso   1.00
C267   C     0.09088   0.88028   0.69438   0.00000  Uiso   1.00
C268   C     0.09438   0.90307   0.72807   0.00000  Uiso   1.00
C269   C     0.07384   0.89303   0.76140   0.00000  Uiso   1.00
H168   H     0.03027   0.80743   0.73037   0.00000  Uiso   1.00
H169   H     0.06821   0.82335   0.67330   0.00000  Uiso   1.00
H170   H     0.11233   0.93021   0.72782   0.00000  Uiso   1.00
H171   H     0.07713   0.91203   0.78655   0.00000  Uiso   1.00
C270   C     0.04977   0.94724   0.66435   0.00000  Uiso   1.00
C271   C     0.08061   0.93432   0.64253   0.00000  Uiso   1.00
C272   C     0.08948   0.95660   0.60823   0.00000  Uiso   1.00
C273   C     0.07093   0.99301   0.59846   0.00000  Uiso   1.00
C274   C     0.04226   0.00790   0.62240   0.00000  Uiso   1.00
C275   C     0.03096   0.98337   0.65446   0.00000  Uiso   1.00
C276   C     0.10674   0.89917   0.65613   0.00000  Uiso   1.00
C277   C     0.10832   0.86781   0.62378   0.00000  Uiso   1.00
C278   C     0.14172   0.85598   0.60564   0.00000  Uiso   1.00
C279   C     0.14203   0.82468   0.57908   0.00000  Uiso   1.00
C280   C     0.10897   0.80391   0.56983   0.00000  Uiso   1.00
C281   C     0.07505   0.81784   0.58551   0.00000  Uiso   1.00
C282   C     0.07478   0.84991   0.61135   0.00000  Uiso   1.00
C283   C     0.15304   0.95943   0.66417   0.00000  Uiso   1.00
C284   C     0.18842   0.97460   0.67274   0.00000  Uiso   1.00
C285   C     0.21809   0.94829   0.68272   0.00000  Uiso   1.00
C286   C     0.21080   0.90604   0.68376   0.00000  Uiso   1.00
C287   C     0.17500   0.89090   0.67629   0.00000  Uiso   1.00
C288   C     0.14566   0.91714   0.66515   0.00000  Uiso   1.00
C289   C     0.25702   0.96774   0.68798   0.00000  Uiso   1.00
C290   C     0.28673   0.93836   0.70475   0.00000  Uiso   1.00
C291   C     0.27842   0.90898   0.73400   0.00000  Uiso   1.00
C292   C     0.30445   0.87870   0.74411   0.00000  Uiso   1.00
C293   C     0.34000   0.87786   0.72625   0.00000  Uiso   1.00
C294   C     0.35011   0.91125   0.70166   0.00000  Uiso   1.00
C295   C     0.32389   0.94088   0.69109   0.00000  Uiso   1.00
H172   H     0.04060   0.93007   0.69019   0.00000  Uiso   1.00
H173   H     0.11229   0.94617   0.58970   0.00000  Uiso   1.00
H174   H     0.07931   0.01031   0.57233   0.00000  Uiso   1.00
H175   H     0.00828   0.99354   0.67326   0.00000  Uiso   1.00
H176   H     0.16819   0.87092   0.61203   0.00000  Uiso   1.00
H177   H     0.16865   0.81543   0.56621   0.00000  Uiso   1.00
H178   H     0.04864   0.80373   0.57737   0.00000  Uiso   1.00
H179   H     0.04792   0.86103   0.62218   0.00000  Uiso   1.00
H180   H     0.13123   0.98149   0.65668   0.00000  Uiso   1.00
H181   H     0.19296   0.00772   0.67125   0.00000  Uiso   1.00
H182   H     0.23294   0.88400   0.69028   0.00000  Uiso   1.00
H183   H     0.17015   0.85788   0.67905   0.00000  Uiso   1.00
H184   H     0.25100   0.90868   0.74826   0.00000  Uiso   1.00
H185   H     0.29626   0.85448   0.76493   0.00000  Uiso   1.00
H186   H     0.37852   0.91368   0.68984   0.00000  Uiso   1.00
H187   H     0.33235   0.96547   0.67082   0.00000  Uiso   1.00
C296   C     0.90405   0.96798   0.87908   0.00000  Uiso   1.00
C297   C     0.90952   0.92872   0.86541   0.00000  Uiso   1.00
C298   C     0.91674   0.89530   0.89079   0.00000  Uiso   1.00
C299   C     0.91672   0.90254   0.93035   0.00000  Uiso   1.00
C300   C     0.90911   0.94158   0.94409   0.00000  Uiso   1.00
C301   C     0.90267   0.97511   0.91888   0.00000  Uiso   1.00
C302   C     0.92249   0.85269   0.87367   0.00000  Uiso   1.00
C303   C     0.81300   0.81237   0.83147   0.00000  Uiso   1.00
C304   C     0.84634   0.79579   0.81656   0.00000  Uiso   1.00
C305   C     0.88146   0.81022   0.82735   0.00000  Uiso   1.00
C306   C     0.88504   0.84162   0.85387   0.00000  Uiso   1.00
C307   C     0.85157   0.85998   0.86661   0.00000  Uiso   1.00
C308   C     0.81650   0.84614   0.85546   0.00000  Uiso   1.00
C309   C     0.92822   0.82025   0.90647   0.00000  Uiso   1.00
C310   C     0.96386   0.80586   0.91679   0.00000  Uiso   1.00
C311   C     0.96839   0.77677   0.94682   0.00000  Uiso   1.00
C312   C     0.93733   0.76222   0.96817   0.00000  Uiso   1.00
C313   C     0.90169   0.77728   0.95847   0.00000  Uiso   1.00
C314   C     0.89721   0.80551   0.92802   0.00000  Uiso   1.00
C315   C     0.97037   0.81775   0.82893   0.00000  Uiso   1.00
C316   C     0.00063   0.81884   0.80299   0.00000  Uiso   1.00
C317   C     0.01946   0.85577   0.79346   0.00000  Uiso   1.00
C318   C     0.00786   0.89079   0.81302   0.00000  Uiso   1.00
C319   C     0.97788   0.88945   0.83906   0.00000  Uiso   1.00
C320   C     0.95700   0.85347   0.84630   0.00000  Uiso   1.00
H188   H     0.90073   0.99309   0.85796   0.00000  Uiso   1.00
H189   H     0.90834   0.92407   0.83437   0.00000  Uiso   1.00
H190   H     0.92231   0.87771   0.95124   0.00000  Uiso   1.00
H191   H     0.90860   0.94533   0.97526   0.00000  Uiso   1.00
H192   H     0.84518   0.76991   0.79732   0.00000  Uiso   1.00
H193   H     0.90608   0.79544   0.81524   0.00000  Uiso   1.00
H194   H     0.85230   0.88518   0.88657   0.00000  Uiso   1.00
H195   H     0.79162   0.86151   0.86648   0.00000  Uiso   1.00
H196   H     0.98876   0.81738   0.90147   0.00000  Uiso   1.00
H197   H     0.99647   0.76602   0.95406   0.00000  Uiso   1.00
H198   H     0.87709   0.76630   0.97471   0.00000  Uiso   1.00
H199   H     0.86904   0.81627   0.92132   0.00000  Uiso   1.00
H200   H     0.95760   0.78804   0.83610   0.00000  Uiso   1.00
H201   H     0.00967   0.79021   0.79026   0.00000  Uiso   1.00
H202   H     0.02182   0.92019   0.80750   0.00000  Uiso   1.00
H203   H     0.97117   0.91769   0.85365   0.00000  Uiso   1.00
C321   C     0.71303   0.60303   0.75663   0.00000  Uiso   1.00
C322   C     0.73909   0.62100   0.78099   0.00000  Uiso   1.00
C323   C     0.72860   0.65396   0.80348   0.00000  Uiso   1.00
C324   C     0.69203   0.66979   0.80217   0.00000  Uiso   1.00
C325   C     0.66531   0.64919   0.78056   0.00000  Uiso   1.00
C326   C     0.67579   0.61677   0.75757   0.00000  Uiso   1.00
H204   H     0.76792   0.60990   0.78171   0.00000  Uiso   1.00
H205   H     0.74942   0.66789   0.82189   0.00000  Uiso   1.00
H206   H     0.63601   0.65856   0.78092   0.00000  Uiso   1.00
H207   H     0.65472   0.60171   0.74027   0.00000  Uiso   1.00
C327   C     0.63927   0.73227   0.77169   0.00000  Uiso   1.00
C328   C     0.64516   0.72718   0.81159   0.00000  Uiso   1.00
C329   C     0.61615   0.73897   0.83654   0.00000  Uiso   1.00
C330   C     0.58075   0.74868   0.82230   0.00000  Uiso   1.00
C331   C     0.57313   0.74701   0.78259   0.00000  Uiso   1.00
C332   C     0.60382   0.74144   0.75740   0.00000  Uiso   1.00
C333   C     0.68151   0.70716   0.82631   0.00000  Uiso   1.00
C334   C     0.71253   0.73991   0.82405   0.00000  Uiso   1.00
C335   C     0.71691   0.76783   0.85378   0.00000  Uiso   1.00
C336   C     0.74847   0.79299   0.85493   0.00000  Uiso   1.00
C337   C     0.77631   0.79207   0.82583   0.00000  Uiso   1.00
C338   C     0.76910   0.76827   0.79352   0.00000  Uiso   1.00
C339   C     0.73770   0.74281   0.79265   0.00000  Uiso   1.00
C340   C     0.64420   0.66403   0.87572   0.00000  Uiso   1.00
C341   C     0.63810   0.64622   0.91237   0.00000  Uiso   1.00
C342   C     0.66396   0.65112   0.94201   0.00000  Uiso   1.00
C343   C     0.69733   0.67223   0.93245   0.00000  Uiso   1.00
C344   C     0.70371   0.68945   0.89562   0.00000  Uiso   1.00
C345   C     0.67628   0.68770   0.86712   0.00000  Uiso   1.00
C346   C     0.65589   0.63786   0.98457   0.00000  Uiso   1.00
C347   C     0.64038   0.56127   0.99545   0.00000  Uiso   1.00
C348   C     0.61574   0.52817   0.99385   0.00000  Uiso   1.00
C349   C     0.57819   0.53391   0.98323   0.00000  Uiso   1.00
C350   C     0.56574   0.57445   0.97690   0.00000  Uiso   1.00
C351   C     0.59031   0.60755   0.97907   0.00000  Uiso   1.00
C352   C     0.62849   0.60144   0.98694   0.00000  Uiso   1.00
H208   H     0.66214   0.72667   0.75134   0.00000  Uiso   1.00
H209   H     0.62054   0.73902   0.86766   0.00000  Uiso   1.00
H210   H     0.55855   0.75641   0.84273   0.00000  Uiso   1.00
H211   H     0.59976   0.74204   0.72622   0.00000  Uiso   1.00
H212   H     0.69624   0.76890   0.87718   0.00000  Uiso   1.00
H213   H     0.75209   0.81226   0.87985   0.00000  Uiso   1.00
H214   H     0.78855   0.76882   0.76899   0.00000  Uiso   1.00
H215   H     0.73363   0.72400   0.76750   0.00000  Uiso   1.00
H216   H     0.62311   0.65961   0.85363   0.00000  Uiso   1.00
H217   H     0.61244   0.62859   0.91738   0.00000  Uiso   1.00
H218   H     0.71896   0.67590   0.95410   0.00000  Uiso   1.00
H219   H     0.73037   0.70493   0.88982   0.00000  Uiso   1.00
H220   H     0.66939   0.55510   0.00323   0.00000  Uiso   1.00
H221   H     0.62622   0.49744   0.00076   0.00000  Uiso   1.00
H222   H     0.53669   0.58039   0.96900   0.00000  Uiso   1.00
H223   H     0.57959   0.63856   0.97410   0.00000  Uiso   1.00
C353   C     0.31507   0.38776   0.19816   0.00000  Uiso   1.00
C354   C     0.28336   0.39988   0.21932   0.00000  Uiso   1.00
C355   C     0.26054   0.43161   0.20557   0.00000  Uiso   1.00
C356   C     0.26831   0.45241   0.17020   0.00000  Uiso   1.00
C357   C     0.29994   0.44010   0.14924   0.00000  Uiso   1.00
C358   C     0.32309   0.40868   0.16309   0.00000  Uiso   1.00
H224   H     0.27635   0.38435   0.24680   0.00000  Uiso   1.00
H225   H     0.23563   0.43965   0.22229   0.00000  Uiso   1.00
H226   H     0.30681   0.45417   0.12115   0.00000  Uiso   1.00
H227   H     0.34710   0.39950   0.14558   0.00000  Uiso   1.00
C359   C     0.28253   0.51580   0.10242   0.00000  Uiso   1.00
C360   C     0.24802   0.49763   0.11292   0.00000  Uiso   1.00
C361   C     0.22225   0.49121   0.08344   0.00000  Uiso   1.00
C362   C     0.23230   0.49744   0.04476   0.00000  Uiso   1.00
C363   C     0.26884   0.50968   0.03395   0.00000  Uiso   1.00
C364   C     0.29304   0.52098   0.06371   0.00000  Uiso   1.00
C365   C     0.24006   0.48486   0.15531   0.00000  Uiso   1.00
C366   C     0.23905   0.52366   0.17937   0.00000  Uiso   1.00
C367   C     0.21744   0.55677   0.16525   0.00000  Uiso   1.00
C368   C     0.20848   0.58936   0.18865   0.00000  Uiso   1.00
C369   C     0.22144   0.59019   0.22679   0.00000  Uiso   1.00
C370   C     0.24609   0.55934   0.23952   0.00000  Uiso   1.00
C371   C     0.25466   0.52637   0.21611   0.00000  Uiso   1.00
C372   C     0.19692   0.42572   0.14083   0.00000  Uiso   1.00
C373   C     0.16244   0.40551   0.14134   0.00000  Uiso   1.00
C374   C     0.13134   0.42230   0.16006   0.00000  Uiso   1.00
C375   C     0.13596   0.45990   0.17816   0.00000  Uiso   1.00
C376   C     0.17038   0.48014   0.17756   0.00000  Uiso   1.00
C377   C     0.20140   0.46358   0.15851   0.00000  Uiso   1.00
C378   C     0.09221   0.40217   0.16229   0.00000  Uiso   1.00
C379   C     0.01816   0.50088   0.12113   0.00000  Uiso   1.00
C380   C     0.05046   0.48993   0.10038   0.00000  Uiso   1.00
C381   C     0.07316   0.45788   0.11376   0.00000  Uiso   1.00
C382   C     0.06479   0.43598   0.14842   0.00000  Uiso   1.00
C383   C     0.03295   0.44766   0.16932   0.00000  Uiso   1.00
C384   C     0.00982   0.47920   0.15572   0.00000  Uiso   1.00
C385   C     0.08363   0.38800   0.20421   0.00000  Uiso   1.00
C386   C     0.10876   0.39373   0.23441   0.00000  Uiso   1.00
C387   C     0.09790   0.38653   0.27275   0.00000  Uiso   1.00
C388   C     0.06117   0.37397   0.28243   0.00000  Uiso   1.00
C389   C     0.03763   0.36337   0.25188   0.00000  Uiso   1.00
C390   C     0.04893   0.36959   0.21352   0.00000  Uiso   1.00
C391   C     0.07247   0.36326   0.10160   0.00000  Uiso   1.00
C392   C     0.07702   0.33008   0.07735   0.00000  Uiso   1.00
C393   C     0.10093   0.29763   0.08761   0.00000  Uiso   1.00
C394   C     0.11785   0.29751   0.12406   0.00000  Uiso   1.00
C395   C     0.11270   0.33022   0.14845   0.00000  Uiso   1.00
C396   C     0.09128   0.36447   0.13679   0.00000  Uiso   1.00
H228   H     0.30198   0.52482   0.12477   0.00000  Uiso   1.00
H229   H     0.19395   0.48039   0.09018   0.00000  Uiso   1.00
H230   H     0.21136   0.49168   0.02287   0.00000  Uiso   1.00
H231   H     0.32109   0.53261   0.05691   0.00000  Uiso   1.00
H232   H     0.20625   0.55616   0.13608   0.00000  Uiso   1.00
H233   H     0.19072   0.61410   0.17749   0.00000  Uiso   1.00
H234   H     0.25743   0.55998   0.26863   0.00000  Uiso   1.00
H235   H     0.27299   0.50223   0.22738   0.00000  Uiso   1.00
H236   H     0.22068   0.41183   0.12604   0.00000  Uiso   1.00
H237   H     0.16035   0.37652   0.12665   0.00000  Uiso   1.00
H238   H     0.11223   0.47377   0.19301   0.00000  Uiso   1.00
H239   H     0.17237   0.50914   0.19223   0.00000  Uiso   1.00
H240   H     0.05778   0.50629   0.07340   0.00000  Uiso   1.00
H241   H     0.09821   0.45012   0.09714   0.00000  Uiso   1.00
H242   H     0.02570   0.43274   0.19694   0.00000  Uiso   1.00
H243   H     0.98533   0.48767   0.17287   0.00000  Uiso   1.00
H244   H     0.13712   0.40487   0.22852   0.00000  Uiso   1.00
H245   H     0.11828   0.39190   0.29530   0.00000  Uiso   1.00
H246   H     0.00947   0.35158   0.25786   0.00000  Uiso   1.00
H247   H     0.02992   0.36131   0.19051   0.00000  Uiso   1.00
H248   H     0.05448   0.38859   0.09228   0.00000  Uiso   1.00
H249   H     0.06287   0.33029   0.04957   0.00000  Uiso   1.00
H250   H     0.13541   0.27170   0.13318   0.00000  Uiso   1.00
H251   H     0.12630   0.32974   0.17652   0.00000  Uiso   1.00
C397   C     0.27278   0.37148   0.84141   0.00000  Uiso   1.00
C398   C     0.26177   0.41126   0.83019   0.00000  Uiso   1.00
C399   C     0.28224   0.44527   0.84191   0.00000  Uiso   1.00
C400   C     0.31433   0.44052   0.86474   0.00000  Uiso   1.00
C401   C     0.32652   0.40050   0.87354   0.00000  Uiso   1.00
C402   C     0.30601   0.36664   0.86233   0.00000  Uiso   1.00
H252   H     0.23630   0.41596   0.81349   0.00000  Uiso   1.00
H253   H     0.27239   0.47602   0.83396   0.00000  Uiso   1.00
H254   H     0.35178   0.39499   0.89026   0.00000  Uiso   1.00
H255   H     0.31556   0.33587   0.87059   0.00000  Uiso   1.00
C403   C     0.27925   0.47217   0.93191   0.00000  Uiso   1.00
C404   C     0.31321   0.48985   0.91958   0.00000  Uiso   1.00
C405   C     0.33058   0.51768   0.94408   0.00000  Uiso   1.00
C406   C     0.31525   0.52638   0.98003   0.00000  Uiso   1.00
C407   C     0.28226   0.50672   0.99350   0.00000  Uiso   1.00
C408   C     0.26431   0.48014   0.96828   0.00000  Uiso   1.00
C409   C     0.33358   0.47806   0.88214   0.00000  Uiso   1.00
C410   C     0.33487   0.51428   0.85276   0.00000  Uiso   1.00
C411   C     0.34843   0.50811   0.81507   0.00000  Uiso   1.00
C412   C     0.35735   0.54132   0.79037   0.00000  Uiso   1.00
C413   C     0.35162   0.58170   0.80213   0.00000  Uiso   1.00
C414   C     0.33363   0.58764   0.83772   0.00000  Uiso   1.00
C415   C     0.32559   0.55441   0.86269   0.00000  Uiso   1.00
C416   C     0.37918   0.44363   0.92903   0.00000  Uiso   1.00
C417   C     0.41375   0.42651   0.93849   0.00000  Uiso   1.00
C418   C     0.44437   0.42951   0.91273   0.00000  Uiso   1.00
C419   C     0.43957   0.45323   0.87886   0.00000  Uiso   1.00
C420   C     0.40508   0.47085   0.86962   0.00000  Uiso   1.00
C421   C     0.37378   0.46528   0.89379   0.00000  Uiso   1.00
C422   C     0.48179   0.40789   0.92263   0.00000  Uiso   1.00
C423   C     0.55331   0.49877   0.97534   0.00000  Uiso   1.00
C424   C     0.56833   0.46233   0.96083   0.00000  Uiso   1.00
C425   C     0.54510   0.43206   0.94662   0.00000  Uiso   1.00
C426   C     0.50601   0.43728   0.94583   0.00000  Uiso   1.00
C427   C     0.49092   0.47166   0.96369   0.00000  Uiso   1.00
C428   C     0.51411   0.50183   0.97830   0.00000  Uiso   1.00
C429   C     0.50224   0.39987   0.88402   0.00000  Uiso   1.00
C430   C     0.49962   0.36293   0.86455   0.00000  Uiso   1.00
C431   C     0.51272   0.35980   0.82656   0.00000  Uiso   1.00
C432   C     0.52885   0.39371   0.80687   0.00000  Uiso   1.00
C433   C     0.53441   0.42971   0.82745   0.00000  Uiso   1.00
C434   C     0.52133   0.43271   0.86520   0.00000  Uiso   1.00
C435   C     0.49184   0.35564   0.97893   0.00000  Uiso   1.00
C436   C     0.48170   0.31987   0.99968   0.00000  Uiso   1.00
C437   C     0.45225   0.29493   0.98745   0.00000  Uiso   1.00
C438   C     0.43390   0.30652   0.95313   0.00000  Uiso   1.00
C439   C     0.44403   0.34220   0.93253   0.00000  Uiso   1.00
C440   C     0.47295   0.36772   0.94526   0.00000  Uiso   1.00
H256   H     0.26452   0.45079   0.91376   0.00000  Uiso   1.00
H257   H     0.35720   0.53188   0.93536   0.00000  Uiso   1.00
H258   H     0.32970   0.54821   0.99795   0.00000  Uiso   1.00
H259   H     0.23878   0.46397   0.97736   0.00000  Uiso   1.00
H260   H     0.35292   0.47699   0.80521   0.00000  Uiso   1.00
H261   H     0.36940   0.53578   0.76190   0.00000  Uiso   1.00
H262   H     0.32748   0.61869   0.84687   0.00000  Uiso   1.00
H263   H     0.31263   0.56052   0.89056   0.00000  Uiso   1.00
H264   H     0.35592   0.43928   0.94944   0.00000  Uiso   1.00
H265   H     0.41640   0.40973   0.96602   0.00000  Uiso   1.00
H266   H     0.46257   0.45798   0.85826   0.00000  Uiso   1.00
H267   H     0.40329   0.48867   0.84262   0.00000  Uiso   1.00
H268   H     0.59861   0.45825   0.95881   0.00000  Uiso   1.00
H269   H     0.55769   0.40494   0.93410   0.00000  Uiso   1.00
H270   H     0.46065   0.47605   0.96524   0.00000  Uiso   1.00
H271   H     0.50128   0.52853   0.99132   0.00000  Uiso   1.00
H272   H     0.48650   0.33605   0.87846   0.00000  Uiso   1.00
H273   H     0.50889   0.33104   0.81171   0.00000  Uiso   1.00
H274   H     0.54859   0.45598   0.81355   0.00000  Uiso   1.00
H275   H     0.52537   0.46154   0.87980   0.00000  Uiso   1.00
H276   H     0.51440   0.37456   0.98983   0.00000  Uiso   1.00
H277   H     0.49640   0.31198   0.02633   0.00000  Uiso   1.00
H278   H     0.41139   0.28746   0.94229   0.00000  Uiso   1.00
H279   H     0.42848   0.35078   0.90658   0.00000  Uiso   1.00
C441   C     0.36361   0.15837   0.32323   0.00000  Uiso   1.00
C442   C     0.36343   0.20104   0.32750   0.00000  Uiso   1.00
C443   C     0.37400   0.22735   0.29681   0.00000  Uiso   1.00
C444   C     0.38609   0.21193   0.26124   0.00000  Uiso   1.00
C445   C     0.38352   0.16951   0.25636   0.00000  Uiso   1.00
C446   C     0.37218   0.14319   0.28667   0.00000  Uiso   1.00
H280   H     0.35550   0.21387   0.35517   0.00000  Uiso   1.00
H281   H     0.37363   0.26040   0.30100   0.00000  Uiso   1.00
H282   H     0.39127   0.15608   0.22896   0.00000  Uiso   1.00
H283   H     0.37186   0.11016   0.28236   0.00000  Uiso   1.00
C447   C     0.45594   0.24887   0.28103   0.00000  Uiso   1.00
C448   C     0.44515   0.24947   0.24221   0.00000  Uiso   1.00
C449   C     0.47334   0.25715   0.21419   0.00000  Uiso   1.00
C450   C     0.51106   0.25935   0.22429   0.00000  Uiso   1.00
C451   C     0.52179   0.25566   0.26306   0.00000  Uiso   1.00
C452   C     0.49344   0.25225   0.29136   0.00000  Uiso   1.00
C453   C     0.40425   0.24080   0.23023   0.00000  Uiso   1.00
C454   C     0.38184   0.28092   0.22614   0.00000  Uiso   1.00
C455   C     0.39895   0.31797   0.21432   0.00000  Uiso   1.00
C456   C     0.37758   0.35296   0.20638   0.00000  Uiso   1.00
C457   C     0.33837   0.35209   0.21032   0.00000  Uiso   1.00
C458   C     0.32131   0.31541   0.22359   0.00000  Uiso   1.00
C459   C     0.34268   0.28039   0.23102   0.00000  Uiso   1.00
C460   C     0.43133   0.18979   0.18231   0.00000  Uiso   1.00
C461   C     0.43053   0.16855   0.14790   0.00000  Uiso   1.00
C462   C     0.40140   0.17469   0.12163   0.00000  Uiso   1.00
C463   C     0.37417   0.20413   0.13024   0.00000  Uiso   1.00
C464   C     0.37535   0.22582   0.16429   0.00000  Uiso   1.00
C465   C     0.40392   0.21908   0.19115   0.00000  Uiso   1.00
C466   C     0.40013   0.15393   0.08234   0.00000  Uiso   1.00
C467   C     0.43958   0.25826   0.01047   0.00000  Uiso   1.00
C468   C     0.46484   0.23254   0.03042   0.00000  Uiso   1.00
C469   C     0.45209   0.19868   0.05235   0.00000  Uiso   1.00
C470   C     0.41375   0.18892   0.05481   0.00000  Uiso   1.00
C471   C     0.38851   0.21511   0.03559   0.00000  Uiso   1.00
C472   C     0.40118   0.24895   0.01363   0.00000  Uiso   1.00
C473   C     0.36047   0.13874   0.07322   0.00000  Uiso   1.00
C474   C     0.33451   0.12839   0.10263   0.00000  Uiso   1.00
C475   C     0.29801   0.11676   0.09396   0.00000  Uiso   1.00
C476   C     0.28621   0.11485   0.05544   0.00000  Uiso   1.00
C477   C     0.31340   0.12144   0.02612   0.00000  Uiso   1.00
C478   C     0.34993   0.13271   0.03488   0.00000  Uiso   1.00
C479   C     0.44407   0.10565   0.04647   0.00000  Uiso   1.00
C480   C     0.46351   0.06867   0.04387   0.00000  Uiso   1.00
C481   C     0.46275   0.04003   0.07461   0.00000  Uiso   1.00
C482   C     0.44201   0.04846   0.10787   0.00000  Uiso   1.00
C483   C     0.42251   0.08538   0.11046   0.00000  Uiso   1.00
C484   C     0.42393   0.11485   0.08010   0.00000  Uiso   1.00
H284   H     0.43527   0.24442   0.30416   0.00000  Uiso   1.00
H285   H     0.46612   0.25995   0.18370   0.00000  Uiso   1.00
H286   H     0.53235   0.26349   0.20164   0.00000  Uiso   1.00
H287   H     0.50090   0.25027   0.32183   0.00000  Uiso   1.00
H288   H     0.42932   0.31973   0.21063   0.00000  Uiso   1.00
H289   H     0.39166   0.38128   0.19686   0.00000  Uiso   1.00
H290   H     0.29088   0.31375   0.22682   0.00000  Uiso   1.00
H291   H     0.32844   0.25203   0.24012   0.00000  Uiso   1.00
H292   H     0.45401   0.18326   0.20243   0.00000  Uiso   1.00
H293   H     0.45299   0.14689   0.14196   0.00000  Uiso   1.00
H294   H     0.35152   0.21048   0.11003   0.00000  Uiso   1.00
H295   H     0.35340   0.24827   0.16952   0.00000  Uiso   1.00
H296   H     0.49487   0.23886   0.02872   0.00000  Uiso   1.00
H297   H     0.47238   0.17972   0.06802   0.00000  Uiso   1.00
H298   H     0.35841   0.20954   0.03784   0.00000  Uiso   1.00
H299   H     0.38067   0.26892   0.99947   0.00000  Uiso   1.00
H300   H     0.34241   0.13038   0.13286   0.00000  Uiso   1.00
H301   H     0.27840   0.10970   0.11763   0.00000  Uiso   1.00
H302   H     0.30561   0.11934   0.99587   0.00000  Uiso   1.00
H303   H     0.37015   0.13808   0.01140   0.00000  Uiso   1.00
H304   H     0.44459   0.12732   0.02188   0.00000  Uiso   1.00
H305   H     0.47919   0.06216   0.01753   0.00000  Uiso   1.00
H306   H     0.44075   0.02607   0.13189   0.00000  Uiso   1.00
H307   H     0.40580   0.09110   0.13632   0.00000  Uiso   1.00
C485   C     0.86310   0.60487   0.30027   0.00000  Uiso   1.00
C486   C     0.83708   0.63225   0.28368   0.00000  Uiso   1.00
C487   C     0.84875   0.66932   0.26623   0.00000  Uiso   1.00
C488   C     0.88673   0.68068   0.26506   0.00000  Uiso   1.00
C489   C     0.91267   0.65336   0.28178   0.00000  Uiso   1.00
C490   C     0.90109   0.61654   0.29942   0.00000  Uiso   1.00
H308   H     0.80740   0.62416   0.28334   0.00000  Uiso   1.00
H309   H     0.82784   0.68920   0.25261   0.00000  Uiso   1.00
H310   H     0.94256   0.66036   0.28073   0.00000  Uiso   1.00
H311   H     0.92212   0.59655   0.31266   0.00000  Uiso   1.00
C491   C     0.94842   0.73488   0.29194   0.00000  Uiso   1.00
C492   C     0.93828   0.73496   0.25294   0.00000  Uiso   1.00
C493   C     0.96377   0.75184   0.22568   0.00000  Uiso   1.00
C494   C     0.99980   0.76313   0.23628   0.00000  Uiso   1.00
C495   C     0.01178   0.75777   0.27467   0.00000  Uiso   1.00
C496   C     0.98468   0.74547   0.30253   0.00000  Uiso   1.00
C497   C     0.90056   0.71752   0.23999   0.00000  Uiso   1.00
C498   C     0.87393   0.75441   0.23810   0.00000  Uiso   1.00
C499   C     0.87442   0.78015   0.20487   0.00000  Uiso   1.00
C500   C     0.84992   0.81312   0.20136   0.00000  Uiso   1.00
C501   C     0.82482   0.82235   0.23144   0.00000  Uiso   1.00
C502   C     0.82626   0.79865   0.26577   0.00000  Uiso   1.00
C503   C     0.85054   0.76507   0.26899   0.00000  Uiso   1.00
C504   C     0.93685   0.67464   0.19145   0.00000  Uiso   1.00
C505   C     0.94019   0.65459   0.15654   0.00000  Uiso   1.00
C506   C     0.91128   0.65577   0.12951   0.00000  Uiso   1.00
C507   C     0.87852   0.67717   0.13931   0.00000  Uiso   1.00
C508   C     0.87493   0.69668   0.17443   0.00000  Uiso   1.00
C509   C     0.90458   0.69697   0.20058   0.00000  Uiso   1.00
C510   C     0.91601   0.63711   0.08926   0.00000  Uiso   1.00
C511   C     0.93942   0.73189   0.00096   0.00000  Uiso   1.00
C512   C     0.95441   0.69246   0.99724   0.00000  Uiso   1.00
C513   C     0.94921   0.66260   0.02660   0.00000  Uiso   1.00
C514   C     0.92959   0.67145   0.06077   0.00000  Uiso   1.00
C515   C     0.91769   0.71200   0.06554   0.00000  Uiso   1.00
C516   C     0.92221   0.74161   0.03613   0.00000  Uiso   1.00
C517   C     0.87766   0.62264   0.07427   0.00000  Uiso   1.00
C518   C     0.84960   0.60759   0.09980   0.00000  Uiso   1.00
C519   C     0.81325   0.60056   0.08711   0.00000  Uiso   1.00
C520   C     0.80403   0.60736   0.04815   0.00000  Uiso   1.00
C521   C     0.83302   0.61787   0.02196   0.00000  Uiso   1.00
C522   C     0.86914   0.62536   0.03487   0.00000  Uiso   1.00
C523   C     0.98224   0.60655   0.09082   0.00000  Uiso   1.00
C524   C     0.00680   0.57404   0.09827   0.00000  Uiso   1.00
C525   C     0.99300   0.53487   0.10858   0.00000  Uiso   1.00
C526   C     0.95405   0.52876   0.10926   0.00000  Uiso   1.00
C527   C     0.92965   0.56109   0.10113   0.00000  Uiso   1.00
C528   C     0.94322   0.60074   0.09257   0.00000  Uiso   1.00
H312   H     0.92839   0.72482   0.31430   0.00000  Uiso   1.00
H313   H     0.95598   0.75500   0.19537   0.00000  Uiso   1.00
H314   H     0.01899   0.77534   0.21404   0.00000  Uiso   1.00
H315   H     0.99226   0.74230   0.33290   0.00000  Uiso   1.00
H316   H     0.89365   0.77404   0.18104   0.00000  Uiso   1.00
H317   H     0.85022   0.83212   0.17489   0.00000  Uiso   1.00
H318   H     0.80771   0.80571   0.28994   0.00000  Uiso   1.00
H319   H     0.85076   0.74679   0.29588   0.00000  Uiso   1.00
H320   H     0.96010   0.67281   0.21160   0.00000  Uiso   1.00
H321   H     0.96606   0.63803   0.15073   0.00000  Uiso   1.00
H322   H     0.85506   0.67893   0.11943   0.00000  Uiso   1.00
H323   H     0.84867   0.71223   0.18097   0.00000  Uiso   1.00
H324   H     0.96858   0.68428   0.97047   0.00000  Uiso   1.00
H325   H     0.95948   0.63160   0.02198   0.00000  Uiso   1.00
H326   H     0.90346   0.72088   0.09199   0.00000  Uiso   1.00
H327   H     0.91148   0.77253   0.04023   0.00000  Uiso   1.00
H328   H     0.85563   0.60271   0.13040   0.00000  Uiso   1.00
H329   H     0.79178   0.59030   0.10790   0.00000  Uiso   1.00
H330   H     0.82696   0.62230   0.99132   0.00000  Uiso   1.00
H331   H     0.89038   0.63482   0.01358   0.00000  Uiso   1.00
H332   H     0.99381   0.63698   0.08421   0.00000  Uiso   1.00
H333   H     0.03697   0.57962   0.09741   0.00000  Uiso   1.00
H334   H     0.94264   0.49836   0.11634   0.00000  Uiso   1.00
H335   H     0.89959   0.55509   0.10217   0.00000  Uiso   1.00
C529   C     0.36741   0.61748   0.77992   0.00000  Uiso   1.00
C530   C     0.34663   0.65294   0.77124   0.00000  Uiso   1.00
C531   C     0.36367   0.68714   0.75321   0.00000  Uiso   1.00
C532   C     0.40219   0.68743   0.74488   0.00000  Uiso   1.00
C533   C     0.42266   0.65138   0.75256   0.00000  Uiso   1.00
C534   C     0.40560   0.61692   0.76963   0.00000  Uiso   1.00
H336   H     0.31673   0.65377   0.77812   0.00000  Uiso   1.00
H337   H     0.34646   0.71380   0.74584   0.00000  Uiso   1.00
H338   H     0.45245   0.65020   0.74521   0.00000  Uiso   1.00
H339   H     0.42224   0.58950   0.77583   0.00000  Uiso   1.00
C535   C     0.46956   0.72298   0.77769   0.00000  Uiso   1.00
C536   C     0.46140   0.73127   0.73873   0.00000  Uiso   1.00
C537   C     0.48939   0.74979   0.71536   0.00000  Uiso   1.00
C538   C     0.52511   0.75700   0.72970   0.00000  Uiso   1.00
C539   C     0.53418   0.74605   0.76806   0.00000  Uiso   1.00
C540   C     0.50532   0.72976   0.79194   0.00000  Uiso   1.00
C541   C     0.42196   0.72335   0.72318   0.00000  Uiso   1.00
C542   C     0.40234   0.76496   0.72629   0.00000  Uiso   1.00
C543   C     0.40387   0.79305   0.69485   0.00000  Uiso   1.00
C544   C     0.38493   0.83021   0.69605   0.00000  Uiso   1.00
C545   C     0.36430   0.84112   0.72904   0.00000  Uiso   1.00
C546   C     0.36544   0.81451   0.76164   0.00000  Uiso   1.00
C547   C     0.38450   0.77719   0.76035   0.00000  Uiso   1.00
C548   C     0.45039   0.68377   0.66689   0.00000  Uiso   1.00
C549   C     0.44744   0.66614   0.63078   0.00000  Uiso   1.00
C550   C     0.41578   0.67215   0.60776   0.00000  Uiso   1.00
C551   C     0.38699   0.69678   0.62253   0.00000  Uiso   1.00
C552   C     0.38943   0.71349   0.65899   0.00000  Uiso   1.00
C553   C     0.42152   0.70797   0.68160   0.00000  Uiso   1.00
C554   C     0.41278   0.65461   0.56691   0.00000  Uiso   1.00
C555   C     0.43263   0.74522   0.47474   0.00000  Uiso   1.00
C556   C     0.44356   0.70437   0.46992   0.00000  Uiso   1.00
C557   C     0.44043   0.67577   0.50060   0.00000  Uiso   1.00
C558   C     0.42662   0.68720   0.53690   0.00000  Uiso   1.00
C559   C     0.41985   0.72895   0.54260   0.00000  Uiso   1.00
C560   C     0.42277   0.75747   0.51207   0.00000  Uiso   1.00
C561   C     0.37146   0.64566   0.55695   0.00000  Uiso   1.00
C562   C     0.34535   0.63239   0.58538   0.00000  Uiso   1.00
C563   C     0.30761   0.62699   0.57657   0.00000  Uiso   1.00
C564   C     0.29496   0.63352   0.53868   0.00000  Uiso   1.00
C565   C     0.32150   0.64377   0.50978   0.00000  Uiso   1.00
C566   C     0.35896   0.64975   0.51881   0.00000  Uiso   1.00
C567   C     0.47478   0.61600   0.56298   0.00000  Uiso   1.00
C568   C     0.49588   0.58037   0.56797   0.00000  Uiso   1.00
C569   C     0.47850   0.54192   0.57425   0.00000  Uiso   1.00
C570   C     0.43917   0.54048   0.57248   0.00000  Uiso   1.00
C571   C     0.41811   0.57624   0.56856   0.00000  Uiso   1.00
C572   C     0.43544   0.61478   0.56516   0.00000  Uiso   1.00
H340   H     0.44803   0.71020   0.79716   0.00000  Uiso   1.00
H341   H     0.48348   0.75836   0.68535   0.00000  Uiso   1.00
H342   H     0.54614   0.77128   0.71053   0.00000  Uiso   1.00
H343   H     0.51095   0.72112   0.82198   0.00000  Uiso   1.00
H344   H     0.41924   0.78551   0.66860   0.00000  Uiso   1.00
H345   H     0.38520   0.85035   0.67034   0.00000  Uiso   1.00
H346   H     0.35121   0.82279   0.78835   0.00000  Uiso   1.00
H347   H     0.38496   0.75723   0.78618   0.00000  Uiso   1.00
H348   H     0.47564   0.67802   0.68366   0.00000  Uiso   1.00
H349   H     0.47063   0.64714   0.62116   0.00000  Uiso   1.00
H350   H     0.36177   0.70277   0.60579   0.00000  Uiso   1.00
H351   H     0.36578   0.73115   0.66978   0.00000  Uiso   1.00
H352   H     0.45248   0.69417   0.44153   0.00000  Uiso   1.00
H353   H     0.44719   0.64374   0.49550   0.00000  Uiso   1.00
H354   H     0.41079   0.73955   0.57075   0.00000  Uiso   1.00
H355   H     0.41623   0.78958   0.51708   0.00000  Uiso   1.00
H356   H     0.35433   0.62678   0.61507   0.00000  Uiso   1.00
H357   H     0.28791   0.61755   0.59948   0.00000  Uiso   1.00
H358   H     0.31260   0.64860   0.47996   0.00000  Uiso   1.00
H359   H     0.37826   0.65838   0.49538   0.00000  Uiso   1.00
H360   H     0.48925   0.64527   0.55828   0.00000  Uiso   1.00
H361   H     0.52634   0.58308   0.56823   0.00000  Uiso   1.00
H362   H     0.42439   0.51120   0.57493   0.00000  Uiso   1.00
H363   H     0.38765   0.57365   0.56880   0.00000  Uiso   1.00
C573   C     0.53748   0.39449   0.76486   0.00000  Uiso   1.00
C574   C     0.55589   0.36285   0.74573   0.00000  Uiso   1.00
C575   C     0.56412   0.36668   0.70626   0.00000  Uiso   1.00
C576   C     0.55329   0.40161   0.68452   0.00000  Uiso   1.00
C577   C     0.53474   0.43309   0.70379   0.00000  Uiso   1.00
C578   C     0.52681   0.42952   0.74313   0.00000  Uiso   1.00
H364   H     0.56494   0.33548   0.76193   0.00000  Uiso   1.00
H365   H     0.57993   0.34236   0.69253   0.00000  Uiso   1.00
H366   H     0.52665   0.46121   0.68830   0.00000  Uiso   1.00
H367   H     0.51205   0.45441   0.75717   0.00000  Uiso   1.00
C579   C     0.50488   0.44146   0.62413   0.00000  Uiso   1.00
C580   C     0.54414   0.44219   0.62132   0.00000  Uiso   1.00
C581   C     0.56097   0.47259   0.59751   0.00000  Uiso   1.00
C582   C     0.53958   0.50350   0.58005   0.00000  Uiso   1.00
C583   C     0.50061   0.50542   0.58621   0.00000  Uiso   1.00
C584   C     0.48358   0.47287   0.60753   0.00000  Uiso   1.00
C585   C     0.56699   0.40900   0.64271   0.00000  Uiso   1.00
C586   C     0.56582   0.37219   0.61619   0.00000  Uiso   1.00
C587   C     0.58605   0.37598   0.58118   0.00000  Uiso   1.00
C588   C     0.59045   0.34270   0.55748   0.00000  Uiso   1.00
C589   C     0.57397   0.30470   0.56774   0.00000  Uiso   1.00
C590   C     0.55027   0.30221   0.60026   0.00000  Uiso   1.00
C591   C     0.54613   0.33576   0.62424   0.00000  Uiso   1.00
C592   C     0.61556   0.46160   0.66249   0.00000  Uiso   1.00
C593   C     0.65236   0.47506   0.66683   0.00000  Uiso   1.00
C594   C     0.68266   0.44988   0.65747   0.00000  Uiso   1.00
C595   C     0.67475   0.40976   0.64617   0.00000  Uiso   1.00
C596   C     0.63802   0.39607   0.64249   0.00000  Uiso   1.00
C597   C     0.60784   0.42257   0.64865   0.00000  Uiso   1.00
C598   C     0.72385   0.46462   0.65622   0.00000  Uiso   1.00
C599   C     0.76094   0.48557   0.53697   0.00000  Uiso   1.00
C600   C     0.78197   0.50036   0.56768   0.00000  Uiso   1.00
C601   C     0.76876   0.49585   0.60564   0.00000  Uiso   1.00
C602   C     0.73440   0.47619   0.61406   0.00000  Uiso   1.00
C603   C     0.71191   0.46536   0.58303   0.00000  Uiso   1.00
C604   C     0.72491   0.47001   0.54513   0.00000  Uiso   1.00
C605   C     0.74772   0.42809   0.67062   0.00000  Uiso   1.00
C606   C     0.73600   0.40594   0.70411   0.00000  Uiso   1.00
C607   C     0.75311   0.36917   0.71522   0.00000  Uiso   1.00
C608   C     0.78265   0.35330   0.69307   0.00000  Uiso   1.00
C609   C     0.79592   0.37677   0.66116   0.00000  Uiso   1.00
C610   C     0.77874   0.41353   0.65013   0.00000  Uiso   1.00
C611   C     0.71374   0.53978   0.66747   0.00000  Uiso   1.00
C612   C     0.71051   0.57294   0.69162   0.00000  Uiso   1.00
C613   C     0.72243   0.56961   0.73010   0.00000  Uiso   1.00
C614   C     0.74032   0.53355   0.74277   0.00000  Uiso   1.00
C615   C     0.74296   0.50009   0.71864   0.00000  Uiso   1.00
C616   C     0.72820   0.50215   0.68136   0.00000  Uiso   1.00
H368   H     0.49084   0.41678   0.64065   0.00000  Uiso   1.00
H369   H     0.59127   0.47301   0.59297   0.00000  Uiso   1.00
H370   H     0.55382   0.52669   0.56189   0.00000  Uiso   1.00
H371   H     0.45333   0.47240   0.61239   0.00000  Uiso   1.00
H372   H     0.59980   0.40494   0.57311   0.00000  Uiso   1.00
H373   H     0.60736   0.34587   0.53112   0.00000  Uiso   1.00
H374   H     0.53618   0.27334   0.60799   0.00000  Uiso   1.00
H375   H     0.52818   0.33271   0.64986   0.00000  Uiso   1.00
H376   H     0.59263   0.48230   0.66950   0.00000  Uiso   1.00
H377   H     0.65686   0.50591   0.67718   0.00000  Uiso   1.00
H378   H     0.69754   0.38882   0.63942   0.00000  Uiso   1.00
H379   H     0.63333   0.36463   0.63379   0.00000  Uiso   1.00
H380   H     0.80962   0.51377   0.56212   0.00000  Uiso   1.00
H381   H     0.78601   0.50652   0.62919   0.00000  Uiso   1.00
H382   H     0.68419   0.45205   0.58794   0.00000  Uiso   1.00
H383   H     0.70700   0.46055   0.52165   0.00000  Uiso   1.00
H384   H     0.71203   0.41667   0.72084   0.00000  Uiso   1.00
H385   H     0.74290   0.35232   0.74091   0.00000  Uiso   1.00
H386   H     0.81886   0.36532   0.64341   0.00000  Uiso   1.00
H387   H     0.78920   0.42983   0.62429   0.00000  Uiso   1.00
H388   H     0.70395   0.54271   0.63778   0.00000  Uiso   1.00
H389   H     0.69808   0.60153   0.68080   0.00000  Uiso   1.00
H390   H     0.75078   0.53085   0.77222   0.00000  Uiso   1.00
H391   H     0.75603   0.47198   0.72968   0.00000  Uiso   1.00
C617   C     0.20727   0.62228   0.25267   0.00000  Uiso   1.00
C618   C     0.23088   0.64442   0.27662   0.00000  Uiso   1.00
C619   C     0.21654   0.67607   0.29854   0.00000  Uiso   1.00
C620   C     0.17841   0.68675   0.29717   0.00000  Uiso   1.00
C621   C     0.15439   0.66200   0.27611   0.00000  Uiso   1.00
C622   C     0.16870   0.63073   0.25367   0.00000  Uiso   1.00
H392   H     0.26080   0.63761   0.27744   0.00000  Uiso   1.00
H393   H     0.23563   0.69317   0.31652   0.00000  Uiso   1.00
H394   H     0.12421   0.66712   0.27661   0.00000  Uiso   1.00
H395   H     0.14952   0.61243   0.23686   0.00000  Uiso   1.00
C623   C     0.11644   0.74142   0.26826   0.00000  Uiso   1.00
C624   C     0.12640   0.74027   0.30734   0.00000  Uiso   1.00
C625   C     0.10025   0.75517   0.33408   0.00000  Uiso   1.00
C626   C     0.06371   0.76448   0.32316   0.00000  Uiso   1.00
C627   C     0.05197   0.75926   0.28495   0.00000  Uiso   1.00
C628   C     0.07975   0.75009   0.25735   0.00000  Uiso   1.00
C629   C     0.16429   0.72311   0.32079   0.00000  Uiso   1.00
C630   C     0.19264   0.75864   0.31791   0.00000  Uiso   1.00
C631   C     0.19707   0.78604   0.34802   0.00000  Uiso   1.00
C632   C     0.22767   0.81273   0.34826   0.00000  Uiso   1.00
C633   C     0.25430   0.81302   0.31807   0.00000  Uiso   1.00
C634   C     0.24650   0.79020   0.28530   0.00000  Uiso   1.00
C635   C     0.21580   0.76380   0.28509   0.00000  Uiso   1.00
C636   C     0.12887   0.68077   0.37223   0.00000  Uiso   1.00
C637   C     0.12391   0.66449   0.40963   0.00000  Uiso   1.00
C638   C     0.15080   0.67040   0.43809   0.00000  Uiso   1.00
C639   C     0.18409   0.69066   0.42660   0.00000  Uiso   1.00
C640   C     0.18922   0.70660   0.38912   0.00000  Uiso   1.00
C641   C     0.16069   0.70406   0.36187   0.00000  Uiso   1.00
C642   C     0.14388   0.65895   0.48129   0.00000  Uiso   1.00
C643   C     0.11200   0.76792   0.54456   0.00000  Uiso   1.00
C644   C     0.09783   0.72918   0.55589   0.00000  Uiso   1.00
C645   C     0.10644   0.69452   0.53470   0.00000  Uiso   1.00
C646   C     0.12882   0.69755   0.50112   0.00000  Uiso   1.00
C647   C     0.14074   0.73683   0.48865   0.00000  Uiso   1.00
C648   C     0.13277   0.77132   0.51000   0.00000  Uiso   1.00
C649   C     0.18173   0.64764   0.49979   0.00000  Uiso   1.00
C650   C     0.20757   0.62394   0.47910   0.00000  Uiso   1.00
C651   C     0.24359   0.61710   0.49279   0.00000  Uiso   1.00
C652   C     0.25487   0.63343   0.52794   0.00000  Uiso   1.00
C653   C     0.22815   0.65395   0.55018   0.00000  Uiso   1.00
C654   C     0.19208   0.66092   0.53626   0.00000  Uiso   1.00
C655   C     0.12970   0.58232   0.49217   0.00000  Uiso   1.00
C656   C     0.10600   0.54853   0.48959   0.00000  Uiso   1.00
C657   C     0.06829   0.55350   0.47938   0.00000  Uiso   1.00
C658   C     0.05449   0.59367   0.47481   0.00000  Uiso   1.00
C659   C     0.07822   0.62747   0.47790   0.00000  Uiso   1.00
C660   C     0.11670   0.62234   0.48496   0.00000  Uiso   1.00
H396   H     0.13700   0.73375   0.24608   0.00000  Uiso   1.00
H397   H     0.10796   0.75811   0.36427   0.00000  Uiso   1.00
H398   H     0.04395   0.77485   0.34505   0.00000  Uiso   1.00
H399   H     0.07246   0.74765   0.22700   0.00000  Uiso   1.00
H400   H     0.17754   0.78535   0.37251   0.00000  Uiso   1.00
H401   H     0.23198   0.83176   0.37325   0.00000  Uiso   1.00
H402   H     0.26519   0.79219   0.26017   0.00000  Uiso   1.00
H403   H     0.21105   0.74556   0.25969   0.00000  Uiso   1.00
H404   H     0.10698   0.67577   0.35112   0.00000  Uiso   1.00
H405   H     0.09826   0.64736   0.41617   0.00000  Uiso   1.00
H406   H     0.20663   0.69472   0.44716   0.00000  Uiso   1.00
H407   H     0.21568   0.72186   0.38181   0.00000  Uiso   1.00
H408   H     0.08124   0.72566   0.58246   0.00000  Uiso   1.00
H409   H     0.09635   0.66457   0.54523   0.00000  Uiso   1.00
H410   H     0.15743   0.74111   0.46231   0.00000  Uiso   1.00
H411   H     0.14326   0.80123   0.49986   0.00000  Uiso   1.00
H412   H     0.19987   0.61191   0.45119   0.00000  Uiso   1.00
H413   H     0.26334   0.59942   0.47570   0.00000  Uiso   1.00
H414   H     0.23599   0.66627   0.57793   0.00000  Uiso   1.00
H415   H     0.17245   0.67811   0.55387   0.00000  Uiso   1.00
H416   H     0.15897   0.57676   0.49925   0.00000  Uiso   1.00
H417   H     0.11747   0.51777   0.49406   0.00000  Uiso   1.00
H418   H     0.02494   0.59869   0.46841   0.00000  Uiso   1.00
H419   H     0.06663   0.65827   0.47410   0.00000  Uiso   1.00
C661   C     0.70824   0.10553   0.26735   0.00000  Uiso   1.00
C662   C     0.72805   0.14271   0.26489   0.00000  Uiso   1.00
C663   C     0.71578   0.17685   0.28510   0.00000  Uiso   1.00
C664   C     0.68347   0.17476   0.30831   0.00000  Uiso   1.00
C665   C     0.66441   0.13695   0.31180   0.00000  Uiso   1.00
C666   C     0.67661   0.10301   0.29194   0.00000  Uiso   1.00
H420   H     0.75284   0.14558   0.24626   0.00000  Uiso   1.00
H421   H     0.73167   0.20541   0.28211   0.00000  Uiso   1.00
H422   H     0.63943   0.13418   0.33016   0.00000  Uiso   1.00
H423   H     0.66132   0.07412   0.29555   0.00000  Uiso   1.00
C667   C     0.61533   0.20442   0.27748   0.00000  Uiso   1.00
C668   C     0.63146   0.22669   0.30710   0.00000  Uiso   1.00
C669   C     0.61358   0.26319   0.31767   0.00000  Uiso   1.00
C670   C     0.57875   0.27423   0.30259   0.00000  Uiso   1.00
C671   C     0.56145   0.24999   0.27509   0.00000  Uiso   1.00
C672   C     0.58114   0.21604   0.26147   0.00000  Uiso   1.00
C673   C     0.66629   0.21132   0.32932   0.00000  Uiso   1.00
C674   C     0.69413   0.24714   0.33305   0.00000  Uiso   1.00
C675   C     0.71149   0.25479   0.36822   0.00000  Uiso   1.00
C676   C     0.73563   0.28793   0.37187   0.00000  Uiso   1.00
C677   C     0.74394   0.31469   0.34038   0.00000  Uiso   1.00
C678   C     0.72668   0.30711   0.30504   0.00000  Uiso   1.00
C679   C     0.70217   0.27397   0.30154   0.00000  Uiso   1.00
C680   C     0.62368   0.21029   0.39058   0.00000  Uiso   1.00
C681   C     0.61684   0.19855   0.42907   0.00000  Uiso   1.00
C682   C     0.64056   0.17138   0.44909   0.00000  Uiso   1.00
C683   C     0.67066   0.15477   0.42835   0.00000  Uiso   1.00
C684   C     0.67817   0.16754   0.39025   0.00000  Uiso   1.00
C685   C     0.65500   0.19586   0.37055   0.00000  Uiso   1.00
C686   C     0.63132   0.15880   0.49139   0.00000  Uiso   1.00
C687   C     0.58586   0.26801   0.54643   0.00000  Uiso   1.00
C688   C     0.56144   0.23888   0.53166   0.00000  Uiso   1.00
C689   C     0.57549   0.20443   0.51329   0.00000  Uiso   1.00
C690   C     0.61419   0.19712   0.51046   0.00000  Uiso   1.00
C691   C     0.63837   0.22740   0.52394   0.00000  Uiso   1.00
C692   C     0.62458   0.26216   0.54146   0.00000  Uiso   1.00
C693   C     0.66593   0.14795   0.51587   0.00000  Uiso   1.00
C694   C     0.66176   0.12638   0.55133   0.00000  Uiso   1.00
C695   C     0.69025   0.12553   0.57860   0.00000  Uiso   1.00
C696   C     0.72459   0.14566   0.57125   0.00000  Uiso   1.00
C697   C     0.73013   0.16344   0.53412   0.00000  Uiso   1.00
C698   C     0.70125   0.16532   0.50741   0.00000  Uiso   1.00
C699   C     0.57610   0.11628   0.51985   0.00000  Uiso   1.00
C700   C     0.54563   0.09031   0.51439   0.00000  Uiso   1.00
C701   C     0.54148   0.06977   0.47959   0.00000  Uiso   1.00
C702   C     0.57145   0.07173   0.45290   0.00000  Uiso   1.00
C703   C     0.60159   0.09799   0.45830   0.00000  Uiso   1.00
C704   C     0.60306   0.12313   0.49047   0.00000  Uiso   1.00
H424   H     0.62886   0.17700   0.26677   0.00000  Uiso   1.00
H425   H     0.62663   0.28303   0.33855   0.00000  Uiso   1.00
H426   H     0.56481   0.30178   0.31263   0.00000  Uiso   1.00
H427   H     0.56882   0.19736   0.23923   0.00000  Uiso   1.00
H428   H     0.70610   0.23519   0.39368   0.00000  Uiso   1.00
H429   H     0.74756   0.29341   0.40013   0.00000  Uiso   1.00
H430   H     0.73251   0.32706   0.27983   0.00000  Uiso   1.00
H431   H     0.68883   0.26919   0.27380   0.00000  Uiso   1.00
H432   H     0.60388   0.23120   0.37666   0.00000  Uiso   1.00
H433   H     0.59227   0.21120   0.44340   0.00000  Uiso   1.00
H434   H     0.68875   0.13162   0.44175   0.00000  Uiso   1.00
H435   H     0.70267   0.15495   0.37571   0.00000  Uiso   1.00
H436   H     0.53118   0.24321   0.53392   0.00000  Uiso   1.00
H437   H     0.55547   0.18317   0.50118   0.00000  Uiso   1.00
H438   H     0.66865   0.22416   0.52108   0.00000  Uiso   1.00
H439   H     0.64423   0.28469   0.55225   0.00000  Uiso   1.00
H440   H     0.63532   0.11120   0.55885   0.00000  Uiso   1.00
H441   H     0.68480   0.11044   0.60663   0.00000  Uiso   1.00
H442   H     0.75699   0.17738   0.52601   0.00000  Uiso   1.00
H443   H     0.70639   0.18214   0.48020   0.00000  Uiso   1.00
H444   H     0.57741   0.13302   0.54661   0.00000  Uiso   1.00
H445   H     0.52378   0.08806   0.53665   0.00000  Uiso   1.00
H446   H     0.57072   0.05364   0.42690   0.00000  Uiso   1.00
H447   H     0.62339   0.09992   0.43601   0.00000  Uiso   1.00
loop_
_geom_bond_atom_site_label_1
_geom_bond_atom_site_label_2
_geom_bond_distance
_geom_bond_site_symmetry_2
_ccdc_geom_bond_type
H1     C228    1.084   1_565 S
H2     C53     1.082   .     S
H3     C58     1.084   .     S
C1     C2      1.385   .     S
C1     H6      1.084   .     S
C1     C33     1.394   .     D
C2     H7      1.084   .     S
C2     C32     1.396   .     D
C3     C4      1.382   .     S
C3     H4      1.085   .     S
C3     C211    1.397   .     D
C4     H5      1.085   .     S
C4     C212    1.398   .     D
H8     C195    1.084   .     S
C5     C6      1.392   .     D
C5     C10     1.396   .     S
C5     C393    1.475   .     S
C6     C7      1.389   .     S
C6     H9      1.085   .     S
C7     C8      1.393   .     D
C7     H10     1.084   .     S
C8     C9      1.397   .     S
C8     C184    1.532   1_554 S
C9     C10     1.382   .     D
C9     H11     1.084   .     S
C10    H12     1.084   .     S
C11    C12     1.397   1_554 D
C11    C16     1.394   .     S
C11    C184    1.530   1_554 S
C12    C11     1.397   1_556 D
C12    C13     1.385   1_556 S
C12    H13     1.085   .     S
C13    C12     1.385   1_554 S
C13    C14     1.399   .     D
C13    H14     1.084   1_554 S
C14    C15     1.398   .     S
C14    C476    1.473   .     S
C15    C16     1.385   .     D
C15    H15     1.084   .     S
C16    H16     1.083   .     S
H14    C13     1.084   1_556 S
C17    C21     1.528   1_655 S
C17    C24     1.532   1_655 S
C17    C33     1.531   .     S
C17    C87     1.532   .     S
C18    C19     1.395   .     D
C18    C23     1.397   .     S
C18    C657    1.476   .     S
C19    C20     1.389   .     S
C19    H17     1.085   .     S
C20    C21     1.391   .     D
C20    H18     1.084   .     S
C21    C17     1.528   1_455 S
C21    C22     1.399   .     S
C22    C23     1.382   .     D
C22    H19     1.085   1_455 S
C23    H20     1.085   .     S
C24    C17     1.532   1_455 S
C24    C25     1.373   1_455 D
C24    C29     1.400   .     S
C25    C24     1.373   1_655 D
C25    C26     1.361   1_655 S
C26    C25     1.361   1_455 S
C26    C27     1.409   .     D
C26    H21     1.083   .     S
C27    C28     1.399   .     S
C27    C388    1.470   .     S
C28    C29     1.384   .     D
C28    H22     1.084   .     S
C29    H23     1.084   .     S
C30    C31     1.386   .     D
C30    C33     1.395   1_455 S
C30    H24     1.084   .     S
C31    C32     1.395   1_455 S
C31    H25     1.085   .     S
C32    C31     1.395   1_655 S
C32    C211    1.475   .     S
C33    C30     1.395   1_655 S
H19    C22     1.085   1_655 S
C34    C35     1.395   .     D
C34    C39     1.399   .     S
C34    C701    1.471   .     S
C35    C36     1.388   .     S
C35    H26     1.084   .     S
C36    C37     1.392   .     D
C36    H27     1.084   .     S
C37    C38     1.396   .     S
C37    C46     1.531   .     S
C38    C39     1.380   .     D
C38    H28     1.084   .     S
C39    H29     1.084   .     S
C40    C41     1.395   .     D
C40    C45     1.384   .     S
C40    H30     1.084   .     S
C41    C42     1.395   .     S
C41    C46     1.526   .     S
C42    C43     1.387   .     D
C42    H31     1.085   .     S
C43    C44     1.396   .     S
C43    H32     1.085   .     S
C44    C45     1.396   .     D
C44    C441    1.474   .     S
C45    H33     1.084   .     S
C46    C47     1.525   .     S
C46    C96     1.529   1_545 S
C47    C48     1.393   1_545 D
C47    C52     1.395   .     S
C48    C47     1.393   1_565 D
C48    C49     1.386   .     S
C48    H34     1.084   .     S
C49    C50     1.396   1_565 D
C49    H35     1.084   .     S
C50    C49     1.396   1_545 D
C50    C51     1.397   .     S
C50    C191    1.474   .     S
C51    C52     1.384   .     D
C51    H36     1.085   .     S
C52    H37     1.085   .     S
C53    C54     1.393   .     S
C53    C58     1.383   .     D
C54    C55     1.398   1_565 D
C54    C59     1.536   .     S
C55    C54     1.398   1_545 D
C55    C56     1.387   .     S
C55    H38     1.085   .     S
C56    C57     1.396   1_545 D
C56    H39     1.085   .     S
C57    C56     1.396   1_565 D
C57    C58     1.395   .     S
C57    C229    1.474   1_565 S
C59    C60     1.531   .     S
C59    C119    1.533   .     S
C59    C127    1.532   .     S
C60    C61     1.393   1_565 D
C60    C65     1.397   1_565 S
C61    C60     1.393   1_545 D
C61    C62     1.382   .     S
C61    H40     1.082   1_545 S
C62    C63     1.396   .     D
C62    H41     1.084   .     S
C63    C64     1.395   .     S
C63    C661    1.476   .     S
C64    C65     1.389   .     D
C64    H42     1.085   .     S
C65    C60     1.397   1_545 S
C65    H43     1.085   .     S
H40    C61     1.082   1_565 S
C66    C67     1.395   .     D
C66    C71     1.398   .     S
C66    C677    1.476   .     S
C67    C68     1.391   .     S
C67    H44     1.085   .     S
C68    C69     1.392   .     D
C68    H45     1.085   .     S
C69    C70     1.399   .     S
C69    C78     1.530   .     S
C70    C71     1.380   .     D
C70    H46     1.084   .     S
C71    H47     1.084   .     S
C72    C73     1.392   .     D
C72    C77     1.382   .     S
C72    H48     1.082   .     S
C73    C74     1.399   .     S
C73    C78     1.537   .     S
C74    C75     1.388   .     D
C74    H49     1.084   .     S
C75    C76     1.394   .     S
C75    H50     1.085   .     S
C76    C77     1.395   .     D
C76    C599    1.473   .     S
C77    H51     1.084   .     S
C78    C79     1.532   .     S
C78    C90     1.538   .     S
C79    C80     1.395   .     S
C79    C84     1.396   .     D
C80    C81     1.383   .     D
C80    H52     1.083   .     S
C81    C82     1.398   .     S
C81    H53     1.084   .     S
C82    C83     1.396   .     D
C82    C485    1.475   .     S
C83    C84     1.388   .     S
C83    H54     1.085   .     S
C84    H55     1.084   .     S
C85    C86     1.386   .     S
C85    C90     1.391   .     D
C85    H56     1.083   .     S
C86    C87     1.394   .     D
C86    H57     1.084   .     S
C87    C88     1.388   .     S
C88    C89     1.383   .     D
C88    H58     1.096   .     S
C89    C90     1.397   .     S
C89    H59     1.084   .     S
C91    C92     1.388   .     S
C91    C96     1.392   .     D
C91    H60     1.083   1_565 S
C92    C93     1.394   .     D
C92    H61     1.085   .     S
C93    C94     1.393   .     S
C93    C97     1.532   .     S
C94    C95     1.383   .     D
C94    H62     1.082   .     S
C95    C96     1.394   .     S
C95    H63     1.085   .     S
C96    C46     1.529   1_565 S
C97    C101    1.533   .     S
C97    C104    1.533   .     S
C97    C115    1.526   .     S
C98    C99     1.399   .     S
C98    C103    1.393   .     D
C98    C633    1.473   .     S
C99    C100    1.381   .     D
C99    H64     1.085   .     S
C100   C101    1.397   .     S
C100   H65     1.085   .     S
C101   C102    1.392   .     D
C102   C103    1.389   .     S
C102   H66     1.083   .     S
C103   H67     1.085   .     S
C104   C105    1.390   .     D
C104   C109    1.400   .     S
C105   C106    1.391   .     S
C105   H68     1.083   .     S
C106   C107    1.392   .     D
C106   H69     1.085   .     S
C107   C108    1.398   .     S
C107   C555    1.474   .     S
C108   C109    1.379   .     D
C108   H70     1.084   .     S
C109   H71     1.085   .     S
C110   C111    1.385   .     S
C110   C115    1.393   .     D
C110   H72     1.083   .     S
C111   C112    1.393   .     D
C111   H73     1.084   .     S
C112   C113    1.394   .     S
C112   C138    1.479   .     S
C113   C114    1.387   .     D
C113   H74     1.085   .     S
C114   C115    1.397   .     S
C114   H75     1.085   .     S
H60    C91     1.083   1_545 S
C116   C117    1.392   .     D
C116   C121    1.397   .     S
C116   C501    1.481   .     S
C117   C118    1.393   .     S
C117   H76     1.085   .     S
C118   C119    1.390   .     D
C118   H77     1.084   .     S
C119   C120    1.400   .     S
C120   C121    1.380   .     D
C120   H78     1.085   .     S
C121   H79     1.085   .     S
C122   C123    1.387   .     S
C122   C127    1.389   .     D
C122   H80     1.083   .     S
C123   C124    1.397   .     D
C123   H81     1.084   .     S
C124   C125    1.391   .     S
C124   C128    1.535   .     S
C125   C126    1.385   .     D
C125   H82     1.083   .     S
C126   C127    1.397   .     S
C126   H83     1.085   .     S
C128   C132    1.537   .     S
C128   C135    1.532   .     S
C128   C146    1.535   .     S
C129   C130    1.269   .     D
C129   C134    1.369   1_565 D
C130   C131    1.363   .     D
C131   C132    1.412   .     S
C131   H85     1.080   .     S
C132   C133    1.409   .     D
C133   C134    1.404   1_565 S
C133   H86     1.084   .     S
C134   C129    1.369   1_545 D
C134   C133    1.404   1_545 S
C134   H87     1.081   .     S
C135   C136    1.398   .     S
C135   C140    1.393   .     D
C136   C137    1.387   .     D
C136   H88     1.085   .     S
C137   C138    1.394   .     S
C137   H89     1.084   .     S
C138   C139    1.393   .     D
C139   C140    1.385   .     S
C139   H90     1.085   .     S
C140   H91     1.083   .     S
C141   C142    1.389   .     D
C141   C146    1.397   .     S
C141   H92     1.085   .     S
C142   C143    1.394   .     S
C142   H93     1.085   .     S
C143   C144    1.395   .     D
C143   C147    1.476   .     S
C144   C145    1.383   .     S
C144   H94     1.084   .     S
C145   C146    1.393   .     D
C145   H95     1.082   .     S
H84    C481    1.085   .     S
C147   C148    1.394   .     S
C147   C152    1.395   .     D
C148   C149    1.389   .     D
C148   H96     1.085   .     S
C149   C150    1.397   .     S
C149   H97     1.084   .     S
C150   C151    1.393   1_554 D
C150   C346    1.535   1_554 S
C151   C150    1.393   1_556 D
C151   C152    1.382   1_556 S
C151   H98     1.083   .     S
C152   C151    1.382   1_554 S
C152   H99     1.084   .     S
C153   C154    1.399   1_554 D
C153   C158    1.391   .     S
C153   C346    1.531   1_554 S
C154   C153    1.399   1_556 D
C154   C155    1.384   .     S
C154   H100    1.085   .     S
C155   C156    1.396   1_556 D
C155   H101    1.084   .     S
C156   C155    1.396   1_554 D
C156   C157    1.395   .     S
C156   C520    1.472   .     S
C157   C158    1.386   .     D
C157   H102    1.084   .     S
C158   H103    1.083   .     S
C159   C160    1.396   .     D
C159   C164    1.395   .     S
C159   C199    1.474   .     S
C160   C161    1.388   .     S
C160   H104    1.085   .     S
C161   C162    1.394   .     D
C161   H105    1.082   .     S
C162   C163    1.400   .     S
C162   C171    1.547   .     S
C163   C164    1.383   .     D
C163   H106    1.083   .     S
C164   H107    1.084   .     S
C165   C166    1.397   .     S
C165   C170    1.380   .     D
C165   H108    1.083   .     S
C166   C167    1.392   .     D
C166   C171    1.537   .     S
C167   C168    1.389   .     S
C167   H109    1.084   .     S
C168   C169    1.395   .     D
C168   H110    1.085   .     S
C169   C170    1.396   .     S
C169   C206    1.472   .     S
C170   H111    1.084   .     S
C171   C172    1.534   .     S
C171   C183    1.527   .     S
C172   C173    1.396   .     S
C172   C177    1.398   .     D
C173   C174    1.381   .     D
C173   H112    1.081   .     S
C174   C175    1.394   .     S
C174   H113    1.085   .     S
C175   C176    1.391   .     D
C175   C397    1.481   .     S
C176   C177    1.392   .     S
C176   H114    1.085   .     S
C177   H115    1.084   .     S
C178   C179    1.387   .     S
C178   C183    1.390   .     D
C178   H116    1.084   .     S
C179   C180    1.394   .     D
C179   H117    1.084   .     S
C180   C181    1.393   .     S
C180   C184    1.534   .     S
C181   C182    1.384   .     D
C181   H118    1.082   .     S
C182   C183    1.397   .     S
C182   H119    1.085   .     S
C184   C11     1.530   1_556 S
C184   C8      1.532   1_556 S
C184   C190    1.526   .     S
C185   C186    1.385   .     D
C185   C190    1.395   1_554 S
C185   H120    1.085   .     S
C186   C187    1.397   1_554 S
C186   H121    1.084   .     S
C187   C186    1.397   1_556 S
C187   C188    1.395   .     D
C187   C213    1.472   .     S
C188   C189    1.384   .     S
C188   H122    1.085   .     S
C189   C190    1.394   .     D
C189   H123    1.084   .     S
C190   C185    1.395   1_556 S
C191   C192    1.395   .     S
C191   C196    1.398   1_545 D
C192   C193    1.388   .     D
C192   H124    1.084   .     S
C193   C194    1.392   1_545 S
C193   H125    1.084   .     S
C194   C193    1.392   1_565 S
C194   C195    1.397   .     D
C194   C289    1.533   .     S
C195   C196    1.382   .     S
C196   C191    1.398   1_565 D
C196   H126    1.084   .     S
C197   C198    1.387   .     S
C197   C202    1.396   .     D
C197   H127    1.085   .     S
C198   C199    1.396   .     D
C198   H128    1.084   .     S
C199   C200    1.398   .     S
C200   C201    1.384   .     D
C200   H129    1.084   .     S
C201   C202    1.393   .     S
C201   H130    1.084   1_545 S
C202   C289    1.526   1_545 S
H130   C201    1.084   1_565 S
C203   C204    1.391   .     S
C203   C208    1.397   .     D
C203   C257    1.531   1_455 S
C204   C205    1.387   .     D
C204   H131    1.084   .     S
C205   C206    1.394   .     S
C205   H132    1.085   .     S
C206   C207    1.398   .     D
C207   C208    1.382   .     S
C207   H133    1.084   .     S
C208   H134    1.085   1_455 S
C209   C210    1.389   .     D
C209   C212    1.390   .     S
C209   H135    1.084   1_655 S
C210   C211    1.395   .     S
C210   H136    1.085   1_655 S
C212   C257    1.526   .     S
H134   C208    1.085   1_655 S
H135   C209    1.084   1_455 S
H136   C210    1.085   1_455 S
C213   C214    1.397   1_455 S
C213   C218    1.394   .     D
C214   C213    1.397   1_655 S
C214   C215    1.384   .     D
C214   H137    1.085   .     S
C215   C216    1.397   .     S
C215   H138    1.084   .     S
C216   C217    1.393   .     D
C216   C225    1.533   .     S
C217   C218    1.386   1_655 S
C217   H139    1.083   1_545 S
C218   C217    1.386   1_455 S
C218   H140    1.084   .     S
H139   C217    1.083   1_565 S
C219   C220    1.392   .     S
C219   C224    1.387   .     D
C219   H141    1.083   .     S
C220   C221    1.400   .     D
C220   C225    1.532   .     S
C221   C222    1.386   .     S
C221   H142    1.085   .     S
C222   C223    1.394   .     D
C222   H143    1.085   .     S
C223   C224    1.394   .     S
C223   C248    1.478   .     S
C224   H144    1.085   .     S
C225   C226    1.534   .     S
C225   C301    1.538   1_545 S
C226   C227    1.398   1_556 D
C226   C231    1.393   .     S
C227   C226    1.398   1_554 D
C227   C228    1.383   .     S
C227   H145    1.084   .     S
C228   H1      1.084   1_545 S
C228   C229    1.397   .     D
C229   C57     1.474   1_545 S
C229   C230    1.394   .     S
C230   C231    1.388   1_554 D
C230   H146    1.085   .     S
C231   C230    1.388   1_556 D
C231   H147    1.083   .     S
C232   C233    1.398   .     D
C232   C237    1.394   .     S
C232   C608    1.471   .     S
C233   C234    1.383   .     S
C233   H148    1.084   .     S
C234   C235    1.397   .     D
C234   H149    1.085   .     S
C235   C236    1.391   .     S
C235   C244    1.533   .     S
C236   C237    1.385   .     D
C236   H150    1.083   .     S
C237   H151    1.085   .     S
C238   C239    1.399   .     S
C238   C243    1.379   .     D
C238   H152    1.084   .     S
C239   C240    1.390   .     D
C239   C244    1.530   .     S
C240   C241    1.391   .     S
C240   H153    1.084   .     S
C241   C242    1.396   .     D
C241   H154    1.085   .     S
C242   C243    1.400   .     S
C242   C696    1.474   .     S
C243   H155    1.084   .     S
C244   C245    1.527   .     S
C244   C256    1.531   .     S
C245   C246    1.394   .     S
C245   C250    1.396   .     D
C246   C247    1.386   .     D
C246   H156    1.083   .     S
C247   C248    1.393   .     S
C247   H157    1.085   .     S
C248   C249    1.396   .     D
C249   C250    1.386   .     S
C249   H158    1.085   .     S
C250   H159    1.084   .     S
C251   C252    1.386   .     D
C251   C256    1.391   .     S
C251   H160    1.083   .     S
C252   C253    1.395   .     S
C252   H161    1.085   .     S
C253   C254    1.391   .     D
C253   C257    1.529   .     S
C254   C255    1.385   .     S
C254   H162    1.083   .     S
C255   C256    1.394   .     D
C255   H163    1.085   .     S
C257   C203    1.531   1_655 S
C257   C261    1.531   .     S
C258   C259    1.398   .     S
C258   C263    1.395   1_455 D
C258   C274    1.474   .     S
C259   C260    1.385   .     D
C259   H164    1.085   .     S
C260   C261    1.397   1_455 S
C260   H165    1.085   .     S
C261   C260    1.397   1_655 S
C261   C262    1.393   .     D
C262   C263    1.385   .     S
C262   H166    1.083   .     S
C263   C258    1.395   1_655 D
C263   H167    1.084   .     S
C264   C265    1.396   .     D
C264   C269    1.401   .     S
C264   C317    1.474   .     S
C265   C266    1.388   .     S
C265   H168    1.084   .     S
C266   C267    1.393   .     D
C266   H169    1.083   .     S
C267   C268    1.399   .     S
C267   C276    1.536   .     S
C268   C269    1.383   .     D
C268   H170    1.084   .     S
C269   H171    1.084   .     S
C270   C271    1.392   .     S
C270   C275    1.384   .     D
C270   H172    1.082   .     S
C271   C272    1.399   .     D
C271   C276    1.535   .     S
C272   C273    1.386   .     S
C272   H173    1.085   .     S
C273   C274    1.397   1_565 D
C273   H174    1.084   1_565 S
C274   C273    1.397   1_545 D
C274   C275    1.396   1_545 S
C275   C274    1.396   1_565 S
C275   H175    1.084   .     S
C276   C277    1.530   .     S
C276   C288    1.535   .     S
C277   C278    1.392   .     S
C277   C282    1.399   .     D
C278   C279    1.385   .     D
C278   H176    1.083   .     S
C279   C280    1.395   .     S
C279   H177    1.085   .     S
C280   C281    1.394   .     D
C280   C643    1.478   .     S
C281   C282    1.387   .     S
C281   H178    1.085   .     S
C282   H179    1.085   .     S
C283   C284    1.385   .     D
C283   C288    1.394   .     S
C283   H180    1.082   .     S
C284   C285    1.395   .     S
C284   H181    1.085   1_565 S
C285   C286    1.392   .     D
C285   C289    1.531   .     S
C286   C287    1.389   .     S
C286   H182    1.083   .     S
C287   C288    1.395   .     D
C287   H183    1.085   .     S
C289   C202    1.526   1_565 S
C289   C290    1.528   .     S
C290   C291    1.394   .     D
C290   C295    1.396   .     S
C291   C292    1.388   .     S
C291   H184    1.084   .     S
C292   C293    1.397   .     D
C292   H185    1.084   .     S
C293   C294    1.398   .     S
C293   C545    1.472   .     S
C294   C295    1.382   .     D
C294   H186    1.084   .     S
C295   H187    1.084   .     S
H174   C273    1.084   1_545 S
H181   C284    1.085   1_545 S
C296   C297    1.382   .     S
C296   C301    1.396   .     D
C296   H188    1.083   .     S
C297   C298    1.397   .     D
C297   H189    1.085   .     S
C298   C299    1.388   .     S
C298   C302    1.530   .     S
C299   C300    1.389   .     D
C299   H190    1.083   .     S
C300   C301    1.391   .     S
C300   H191    1.083   .     S
C301   C225    1.538   1_565 S
C302   C306    1.546   .     S
C302   C309    1.536   .     S
C302   C320    1.536   .     S
C303   C304    1.398   .     S
C303   C308    1.396   .     D
C303   C337    1.474   .     S
C304   C305    1.388   .     D
C304   H192    1.084   .     S
C305   C306    1.393   .     S
C305   H193    1.082   .     S
C306   C307    1.400   .     D
C307   C308    1.383   .     S
C307   H194    1.083   .     S
C308   H195    1.084   .     S
C309   C310    1.394   .     S
C309   C314    1.395   .     D
C310   C311    1.389   .     D
C310   H196    1.084   .     S
C311   C312    1.391   .     S
C311   H197    1.085   .     S
C312   C313    1.396   .     D
C312   C511    1.478   1_556 S
C313   C314    1.382   .     S
C313   H198    1.085   .     S
C314   H199    1.084   .     S
C315   C316    1.388   1_655 D
C315   C320    1.399   .     S
C315   H200    1.084   .     S
C316   C315    1.388   1_455 D
C316   C317    1.398   .     S
C316   H201    1.085   .     S
C317   C318    1.396   .     D
C318   C319    1.383   1_455 S
C318   H202    1.084   .     S
C319   C318    1.383   1_655 S
C319   C320    1.395   .     D
C319   H203    1.082   .     S
C321   C322    1.393   .     D
C321   C326    1.395   .     S
C321   C613    1.473   .     S
C322   C323    1.386   .     S
C322   H204    1.085   .     S
C323   C324    1.396   .     D
C323   H205    1.084   .     S
C324   C325    1.392   .     S
C324   C333    1.533   .     S
C325   C326    1.382   .     D
C325   H206    1.083   .     S
C326   H207    1.085   .     S
C327   C328    1.397   .     S
C327   C332    1.384   .     D
C327   H208    1.085   .     S
C328   C329    1.394   .     D
C328   C333    1.529   .     S
C329   C330    1.386   .     S
C329   H209    1.084   .     S
C330   C331    1.399   .     D
C330   H210    1.084   .     S
C331   C332    1.399   .     S
C331   C539    1.475   .     S
C332   H211    1.084   .     S
C333   C334    1.527   .     S
C333   C345    1.532   .     S
C334   C335    1.395   .     D
C334   C339    1.395   .     S
C335   C336    1.385   .     S
C335   H212    1.084   .     S
C336   C337    1.400   .     D
C336   H213    1.084   .     S
C337   C338    1.397   .     S
C338   C339    1.386   .     D
C338   H214    1.084   .     S
C339   H215    1.084   .     S
C340   C341    1.387   .     S
C340   C345    1.395   .     D
C340   H216    1.085   .     S
C341   C342    1.392   .     D
C341   H217    1.083   .     S
C342   C343    1.397   .     S
C342   C346    1.538   .     S
C343   C344    1.386   .     D
C343   H218    1.084   .     S
C344   C345    1.391   .     S
C344   H219    1.083   .     S
C346   C153    1.531   1_556 S
C346   C150    1.535   1_556 S
C346   C352    1.527   .     S
C347   C348    1.385   .     S
C347   C352    1.393   .     D
C347   H220    1.083   1_556 S
C348   C349    1.396   .     D
C348   H221    1.084   1_556 S
C349   C350    1.398   .     S
C349   C423    1.473   .     S
C350   C351    1.385   .     D
C350   H222    1.084   .     S
C351   C352    1.397   .     S
C351   H223    1.084   .     S
H220   C347    1.083   1_554 S
H221   C348    1.084   1_554 S
C353   C354    1.396   .     D
C353   C358    1.394   .     S
C353   C457    1.475   .     S
C354   C355    1.385   .     S
C354   H224    1.085   .     S
C355   C356    1.399   .     D
C355   H225    1.085   .     S
C356   C357    1.392   .     S
C356   C365    1.535   .     S
C357   C358    1.386   .     D
C357   H226    1.082   .     S
C358   H227    1.085   .     S
C359   C360    1.396   .     S
C359   C364    1.385   .     D
C359   H228    1.085   .     S
C360   C361    1.393   .     D
C360   C365    1.528   .     S
C361   C362    1.384   .     S
C361   H229    1.083   .     S
C362   C363    1.398   .     D
C362   H230    1.083   .     S
C363   C364    1.400   .     S
C363   C407    1.472   1_554 S
C364   H231    1.084   .     S
C365   C366    1.526   .     S
C365   C377    1.535   .     S
C366   C367    1.398   .     D
C366   C371    1.391   .     S
C367   C368    1.382   .     S
C367   H232    1.084   .     S
C368   C369    1.397   .     D
C368   H233    1.084   .     S
C369   C370    1.393   .     S
C369   C617    1.474   .     S
C370   C371    1.389   .     D
C370   H234    1.085   .     S
C371   H235    1.084   .     S
C372   C373    1.386   .     D
C372   C377    1.395   .     S
C372   H236    1.085   .     S
C373   C374    1.391   .     S
C373   H237    1.082   .     S
C374   C375    1.395   .     D
C374   C378    1.532   .     S
C375   C376    1.384   .     S
C375   H238    1.085   .     S
C376   C377    1.391   .     D
C376   H239    1.082   .     S
C378   C382    1.535   .     S
C378   C385    1.529   .     S
C378   C396    1.525   .     S
C379   C380    1.395   .     D
C379   C384    1.393   .     S
C379   C525    1.476   1_455 S
C380   C381    1.386   .     S
C380   H240    1.085   .     S
C381   C382    1.399   .     D
C381   H241    1.085   .     S
C382   C383    1.391   .     S
C383   C384    1.386   .     D
C383   H242    1.082   .     S
C384   H243    1.085   1_455 S
C385   C386    1.393   .     S
C385   C390    1.397   .     D
C386   C387    1.384   .     D
C386   H244    1.083   .     S
C387   C388    1.398   .     S
C387   H245    1.084   .     S
C388   C389    1.400   .     D
C389   C390    1.385   .     S
C389   H246    1.084   .     S
C390   H247    1.085   .     S
C391   C392    1.389   .     S
C391   C396    1.391   .     D
C391   H248    1.084   .     S
C392   C393    1.392   .     D
C392   H249    1.085   .     S
C393   C394    1.397   .     S
C394   C395    1.382   .     D
C394   H250    1.085   .     S
C395   C396    1.398   .     S
C395   H251    1.084   .     S
H243   C384    1.085   1_655 S
C397   C398    1.393   .     S
C397   C402    1.394   .     D
C398   C399    1.391   .     D
C398   H252    1.084   .     S
C399   C400    1.396   .     S
C399   H253    1.085   .     S
C400   C401    1.394   .     D
C400   C409    1.534   .     S
C401   C402    1.382   .     S
C401   H254    1.082   .     S
C402   H255    1.085   .     S
C403   C404    1.389   .     D
C403   C408    1.385   .     S
C403   H256    1.084   .     S
C404   C405    1.399   .     S
C404   C409    1.529   .     S
C405   C406    1.383   .     D
C405   H257    1.085   .     S
C406   C407    1.399   .     S
C406   H258    1.084   .     S
C407   C363    1.472   1_556 S
C407   C408    1.398   .     D
C408   H259    1.084   .     S
C409   C410    1.527   .     S
C409   C421    1.539   .     S
C410   C411    1.398   .     S
C410   C415    1.393   .     D
C411   C412    1.386   .     D
C411   H260    1.085   .     S
C412   C413    1.395   .     S
C412   H261    1.085   .     S
C413   C414    1.393   .     D
C413   C529    1.476   .     S
C414   C415    1.385   .     S
C414   H262    1.085   .     S
C415   H263    1.083   .     S
C416   C417    1.385   .     D
C416   C421    1.399   .     S
C416   H264    1.084   .     S
C417   C418    1.396   .     S
C417   H265    1.084   .     S
C418   C419    1.390   .     D
C418   C422    1.538   .     S
C419   C420    1.387   .     S
C419   H266    1.083   .     S
C420   C421    1.388   .     D
C420   H267    1.082   .     S
C422   C426    1.529   .     S
C422   C429    1.536   .     S
C422   C440    1.528   .     S
C423   C424    1.399   .     S
C423   C428    1.396   .     D
C424   C425    1.383   .     D
C424   H268    1.084   .     S
C425   C426    1.397   .     S
C425   H269    1.084   .     S
C426   C427    1.393   .     D
C427   C428    1.385   .     S
C427   H270    1.084   .     S
C428   H271    1.084   .     S
C429   C430    1.392   .     S
C429   C434    1.399   .     D
C430   C431    1.389   .     D
C430   H272    1.083   .     S
C431   C432    1.393   .     S
C431   H273    1.085   .     S
C432   C433    1.397   .     D
C432   C573    1.474   .     S
C433   C434    1.381   .     S
C433   H274    1.084   .     S
C434   H275    1.084   .     S
C435   C436    1.388   .     S
C435   C440    1.392   .     D
C435   H276    1.084   .     S
C436   C437    1.395   .     D
C436   H277    1.084   1_556 S
C437   C438    1.397   .     S
C437   C467    1.476   1_556 S
C438   C439    1.383   .     D
C438   H278    1.084   .     S
C439   C440    1.398   .     S
C439   H279    1.085   .     S
H277   C436    1.084   1_554 S
C441   C442    1.395   .     S
C441   C446    1.395   .     D
C442   C443    1.386   .     D
C442   H280    1.085   .     S
C443   C444    1.399   .     S
C443   H281    1.085   .     S
C444   C445    1.392   .     D
C444   C453    1.534   .     S
C445   C446    1.384   .     S
C445   H282    1.083   .     S
C446   H283    1.085   .     S
C447   C448    1.394   .     D
C447   C452    1.385   .     S
C447   H284    1.083   .     S
C448   C449    1.398   .     S
C448   C453    1.540   .     S
C449   C450    1.388   .     D
C449   H285    1.084   .     S
C450   C451    1.394   .     S
C450   H286    1.085   .     S
C451   C452    1.394   .     D
C451   C671    1.481   .     S
C452   H287    1.085   .     S
C453   C454    1.529   .     S
C453   C465    1.536   .     S
C454   C455    1.392   .     D
C454   C459    1.397   .     S
C455   C456    1.387   .     S
C455   H288    1.084   .     S
C456   C457    1.396   .     D
C456   H289    1.085   .     S
C457   C458    1.395   .     S
C458   C459    1.385   .     D
C458   H290    1.085   .     S
C459   H291    1.084   .     S
C460   C461    1.388   .     S
C460   C465    1.397   .     D
C460   H292    1.084   .     S
C461   C462    1.391   .     D
C461   H293    1.084   .     S
C462   C463    1.394   .     S
C462   C466    1.529   .     S
C463   C464    1.385   .     D
C463   H294    1.084   .     S
C464   C465    1.392   .     S
C464   H295    1.083   .     S
C466   C470    1.531   .     S
C466   C473    1.528   .     S
C466   C484    1.526   .     S
C467   C437    1.476   1_554 S
C467   C468    1.397   .     S
C467   C472    1.397   .     D
C468   C469    1.386   .     D
C468   H296    1.085   .     S
C469   C470    1.396   .     S
C469   H297    1.085   .     S
C470   C471    1.394   .     D
C471   C472    1.385   .     S
C471   H298    1.084   .     S
C472   H299    1.085   1_554 S
C473   C474    1.394   .     D
C473   C478    1.395   .     S
C474   C475    1.385   .     S
C474   H300    1.084   .     S
C475   C476    1.398   .     D
C475   H301    1.084   .     S
C476   C477    1.400   .     S
C477   C478    1.384   .     D
C477   H302    1.084   1_554 S
C478   H303    1.085   .     S
C479   C480    1.388   .     S
C479   C484    1.393   .     D
C479   H304    1.084   .     S
C480   C481    1.387   .     D
C480   H305    1.084   .     S
C481   C482    1.388   .     S
C482   C483    1.387   .     D
C482   H306    1.085   .     S
C483   C484    1.396   .     S
C483   H307    1.084   .     S
H299   C472    1.085   1_556 S
H302   C477    1.084   1_556 S
C485   C486    1.396   .     S
C485   C490    1.398   .     D
C486   C487    1.388   .     D
C486   H308    1.084   .     S
C487   C488    1.395   .     S
C487   H309    1.085   .     S
C488   C489    1.395   .     D
C488   C497    1.529   .     S
C489   C490    1.383   .     S
C489   H310    1.083   .     S
C490   H311    1.084   .     S
C491   C492    1.394   .     S
C491   C496    1.386   .     D
C491   H312    1.084   .     S
C492   C493    1.395   .     D
C492   C497    1.527   .     S
C493   C494    1.384   .     S
C493   H313    1.084   .     S
C494   C495    1.399   1_655 D
C494   H314    1.084   1_655 S
C495   C494    1.399   1_455 D
C495   C496    1.399   1_455 S
C495   C627    1.473   .     S
C496   C495    1.399   1_655 S
C496   H315    1.084   .     S
C497   C498    1.525   .     S
C497   C509    1.534   .     S
C498   C499    1.396   .     S
C498   C503    1.393   .     D
C499   C500    1.381   .     D
C499   H316    1.084   .     S
C500   C501    1.397   .     S
C500   H317    1.085   .     S
C501   C502    1.392   .     D
C502   C503    1.391   .     S
C502   H318    1.085   .     S
C503   H319    1.084   .     S
C504   C505    1.386   .     S
C504   C509    1.393   .     D
C504   H320    1.084   .     S
C505   C506    1.392   .     D
C505   H321    1.083   .     S
C506   C507    1.397   .     S
C506   C510    1.535   .     S
C507   C508    1.385   .     D
C507   H322    1.083   .     S
C508   C509    1.392   .     S
C508   H323    1.084   .     S
C510   C514    1.535   .     S
C510   C517    1.537   .     S
C510   C528    1.527   .     S
C511   C312    1.478   1_554 S
C511   C512    1.393   1_554 S
C511   C516    1.394   .     D
C512   C511    1.393   1_556 S
C512   C513    1.389   1_556 D
C512   H324    1.084   .     S
C513   C512    1.389   1_554 D
C513   C514    1.397   .     S
C513   H325    1.084   .     S
C514   C515    1.394   .     D
C515   C516    1.382   .     S
C515   H326    1.082   .     S
C516   H327    1.085   .     S
C517   C518    1.398   .     S
C517   C522    1.393   .     D
C518   C519    1.386   .     D
C518   H328    1.084   .     S
C519   C520    1.395   .     S
C519   H329    1.084   .     S
C520   C521    1.395   .     D
C521   C522    1.384   .     S
C521   H330    1.084   1_554 S
C522   H331    1.083   .     S
C523   C524    1.388   1_655 D
C523   C528    1.396   .     S
C523   H332    1.084   .     S
C524   C523    1.388   1_455 D
C524   C525    1.394   1_455 S
C524   H333    1.085   .     S
C525   C379    1.476   1_655 S
C525   C524    1.394   1_655 S
C525   C526    1.395   .     D
C526   C527    1.384   .     S
C526   H334    1.084   .     S
C527   C528    1.394   .     D
C527   H335    1.083   .     S
H314   C494    1.084   1_455 S
H330   C521    1.084   1_556 S
C529   C530    1.393   .     S
C529   C534    1.396   .     D
C530   C531    1.389   .     D
C530   H336    1.084   .     S
C531   C532    1.392   .     S
C531   H337    1.084   .     S
C532   C533    1.397   .     D
C532   C541    1.530   .     S
C533   C534    1.382   .     S
C533   H338    1.084   .     S
C534   H339    1.085   .     S
C535   C536    1.394   .     D
C535   C540    1.384   .     S
C535   H340    1.084   .     S
C536   C537    1.395   .     S
C536   C541    1.527   .     S
C537   C538    1.386   .     D
C537   H341    1.085   .     S
C538   C539    1.398   .     S
C538   H342    1.084   .     S
C539   C540    1.399   .     D
C540   H343    1.084   .     S
C541   C542    1.524   .     S
C541   C553    1.529   .     S
C542   C543    1.394   .     D
C542   C547    1.394   .     S
C543   C544    1.381   .     S
C543   H344    1.084   .     S
C544   C545    1.398   .     D
C544   H345    1.084   .     S
C545   C546    1.396   .     S
C546   C547    1.388   .     D
C546   H346    1.085   .     S
C547   H347    1.085   .     S
C548   C549    1.388   .     S
C548   C553    1.390   .     D
C548   H348    1.084   .     S
C549   C550    1.392   .     D
C549   H349    1.083   .     S
C550   C551    1.397   .     S
C550   C554    1.536   .     S
C551   C552    1.385   .     D
C551   H350    1.084   .     S
C552   C553    1.394   .     S
C552   H351    1.084   .     S
C554   C558    1.532   .     S
C554   C561    1.537   .     S
C554   C572    1.524   .     S
C555   C556    1.394   .     S
C555   C560    1.397   .     D
C556   C557    1.388   .     D
C556   H352    1.085   .     S
C557   C558    1.397   .     S
C557   H353    1.084   .     S
C558   C559    1.393   .     D
C559   C560    1.382   .     S
C559   H354    1.083   .     S
C560   H355    1.085   .     S
C561   C562    1.398   .     D
C561   C566    1.393   .     S
C562   C563    1.387   .     S
C562   H356    1.084   .     S
C563   C564    1.394   .     D
C563   H357    1.085   .     S
C564   C565    1.395   .     S
C564   C652    1.473   .     S
C565   C566    1.382   .     D
C565   H358    1.084   .     S
C566   H359    1.082   .     S
C567   C568    1.384   .     S
C567   C572    1.397   .     D
C567   H360    1.085   .     S
C568   C569    1.399   .     D
C568   H361    1.084   .     S
C569   C570    1.397   .     S
C569   C583    1.471   .     S
C570   C571    1.384   .     D
C570   H362    1.084   .     S
C571   C572    1.392   .     S
C571   H363    1.083   .     S
C573   C574    1.394   .     S
C573   C578    1.396   .     D
C574   C575    1.388   .     D
C574   H364    1.085   .     S
C575   C576    1.395   .     S
C575   H365    1.084   .     S
C576   C577    1.395   .     D
C576   C585    1.526   .     S
C577   C578    1.382   .     S
C577   H366    1.083   .     S
C578   H367    1.085   .     S
C579   C580    1.394   .     S
C579   C584    1.382   .     D
C579   H368    1.085   .     S
C580   C581    1.392   .     D
C580   C585    1.525   .     S
C581   C582    1.385   .     S
C581   H369    1.084   .     S
C582   C583    1.397   .     D
C582   H370    1.084   .     S
C583   C584    1.400   .     S
C584   H371    1.084   .     S
C585   C586    1.524   .     S
C585   C597    1.531   .     S
C586   C587    1.398   .     S
C586   C591    1.390   .     D
C587   C588    1.379   .     D
C587   H372    1.084   .     S
C588   C589    1.396   .     S
C588   H373    1.084   .     S
C589   C590    1.393   .     D
C589   C687    1.475   .     S
C590   C591    1.391   .     S
C590   H374    1.085   .     S
C591   H375    1.084   .     S
C592   C593    1.386   .     D
C592   C597    1.392   .     S
C592   H376    1.084   .     S
C593   C594    1.391   .     S
C593   H377    1.083   .     S
C594   C595    1.397   .     D
C594   C598    1.536   .     S
C595   C596    1.383   .     S
C595   H378    1.084   .     S
C596   C597    1.391   .     D
C596   H379    1.083   .     S
C598   C602    1.531   .     S
C598   C605    1.530   .     S
C598   C616    1.521   .     S
C599   C600    1.396   .     S
C599   C604    1.395   .     D
C600   C601    1.387   .     D
C600   H380    1.085   .     S
C601   C602    1.398   .     S
C601   H381    1.085   .     S
C602   C603    1.393   .     D
C603   C604    1.383   .     S
C603   H382    1.082   .     S
C604   H383    1.084   .     S
C605   C606    1.399   .     S
C605   C610    1.391   .     D
C606   C607    1.384   .     D
C606   H384    1.085   .     S
C607   C608    1.396   .     S
C607   H385    1.084   .     S
C608   C609    1.395   .     D
C609   C610    1.384   .     S
C609   H386    1.084   .     S
C610   H387    1.083   .     S
C611   C612    1.381   .     S
C611   C616    1.397   .     D
C611   H388    1.085   .     S
C612   C613    1.396   .     D
C612   H389    1.085   .     S
C613   C614    1.392   .     S
C614   C615    1.387   .     D
C614   H390    1.084   .     S
C615   C616    1.391   .     S
C615   H391    1.084   .     S
C617   C618    1.394   .     S
C617   C622    1.395   .     D
C618   C619    1.385   .     D
C618   H392    1.084   .     S
C619   C620    1.397   .     S
C619   H393    1.084   .     S
C620   C621    1.392   .     D
C620   C629    1.532   .     S
C621   C622    1.385   .     S
C621   H394    1.083   .     S
C622   H395    1.084   .     S
C623   C624    1.394   .     D
C623   C628    1.385   .     S
C623   H396    1.084   .     S
C624   C625    1.396   .     S
C624   C629    1.526   .     S
C625   C626    1.384   .     D
C625   H397    1.084   .     S
C626   C627    1.399   .     S
C626   H398    1.084   .     S
C627   C628    1.399   .     D
C628   H399    1.084   .     S
C629   C630    1.527   .     S
C629   C641    1.530   .     S
C630   C631    1.394   .     D
C630   C635    1.395   .     S
C631   C632    1.387   .     S
C631   H400    1.085   .     S
C632   C633    1.396   .     D
C632   H401    1.085   .     S
C633   C634    1.396   .     S
C634   C635    1.384   .     D
C634   H402    1.084   .     S
C635   H403    1.084   .     S
C636   C637    1.386   .     D
C636   C641    1.394   .     S
C636   H404    1.084   .     S
C637   C638    1.392   .     S
C637   H405    1.083   .     S
C638   C639    1.397   .     D
C638   C642    1.539   .     S
C639   C640    1.386   .     S
C639   H406    1.084   .     S
C640   C641    1.391   .     D
C640   H407    1.084   .     S
C642   C646    1.536   .     S
C642   C649    1.532   .     S
C642   C660    1.529   .     S
C643   C644    1.395   .     S
C643   C648    1.394   .     D
C644   C645    1.389   .     D
C644   H408    1.085   .     S
C645   C646    1.396   .     S
C645   H409    1.085   .     S
C646   C647    1.395   .     D
C647   C648    1.383   .     S
C647   H410    1.083   .     S
C648   H411    1.084   .     S
C649   C650    1.399   .     S
C649   C654    1.392   .     D
C650   C651    1.382   .     D
C650   H412    1.085   .     S
C651   C652    1.397   .     S
C651   H413    1.085   .     S
C652   C653    1.393   .     D
C653   C654    1.387   .     S
C653   H414    1.085   .     S
C654   H415    1.083   .     S
C655   C656    1.385   .     D
C655   C660    1.393   .     S
C655   H416    1.083   .     S
C656   C657    1.395   .     S
C656   H417    1.085   .     S
C657   C658    1.397   .     D
C658   C659    1.387   .     S
C658   H418    1.085   .     S
C659   C660    1.398   .     D
C659   H419    1.085   .     S
C661   C662    1.394   .     S
C661   C666    1.398   .     D
C662   C663    1.392   .     D
C662   H420    1.085   .     S
C663   C664    1.390   .     S
C663   H421    1.084   .     S
C664   C665    1.400   .     D
C664   C673    1.530   .     S
C665   C666    1.379   .     S
C665   H422    1.084   .     S
C666   H423    1.084   .     S
C667   C668    1.393   .     S
C667   C672    1.385   .     D
C667   H424    1.083   .     S
C668   C669    1.398   .     D
C668   C673    1.536   .     S
C669   C670    1.388   .     S
C669   H425    1.085   .     S
C670   C671    1.394   .     D
C670   H426    1.084   .     S
C671   C672    1.394   .     S
C672   H427    1.085   .     S
C673   C674    1.532   .     S
C673   C685    1.540   .     S
C674   C675    1.393   .     S
C674   C679    1.397   .     D
C675   C676    1.382   .     D
C675   H428    1.082   .     S
C676   C677    1.397   .     S
C676   H429    1.084   .     S
C677   C678    1.396   .     D
C678   C679    1.389   .     S
C678   H430    1.085   .     S
C679   H431    1.085   .     S
C680   C681    1.386   .     D
C680   C685    1.389   .     S
C680   H432    1.082   .     S
C681   C682    1.392   .     S
C681   H433    1.083   .     S
C682   C683    1.395   .     D
C682   C686    1.532   .     S
C683   C684    1.387   .     S
C683   H434    1.084   .     S
C684   C685    1.398   .     D
C684   H435    1.084   .     S
C686   C690    1.543   .     S
C686   C693    1.532   .     S
C686   C704    1.530   .     S
C687   C688    1.391   .     S
C687   C692    1.396   .     D
C688   C689    1.389   .     D
C688   H436    1.085   .     S
C689   C690    1.396   .     S
C689   H437    1.083   .     S
C690   C691    1.395   .     D
C691   C692    1.381   .     S
C691   H438    1.083   .     S
C692   H439    1.084   .     S
C693   C694    1.395   .     D
C693   C698    1.396   .     S
C694   C695    1.386   .     S
C694   H440    1.083   .     S
C695   C696    1.398   .     D
C695   H441    1.084   .     S
C696   C697    1.398   .     S
C697   C698    1.384   .     D
C697   H442    1.084   .     S
C698   H443    1.083   .     S
C699   C700    1.386   .     D
C699   C704    1.397   .     S
C699   H444    1.084   .     S
C700   C701    1.396   .     S
C700   H445    1.084   .     S
C701   C702    1.397   .     D
C702   C703    1.382   .     S
C702   H446    1.084   .     S
C703   C704    1.395   .     D
C703   H447    1.084   .     S
