data_C_pcu_dftb_opt2
_audit_creation_date              2023-10-04
_audit_creation_method            'Materials Studio'
_symmetry_space_group_name_H-M    'P1'
_symmetry_Int_Tables_number       1
_symmetry_cell_setting            triclinic
loop_
_symmetry_equiv_pos_as_xyz
  x,y,z
_cell_length_a                    40.1141
_cell_length_b                    40.4444
_cell_length_c                    25.7840
_cell_angle_alpha                 79.9732
_cell_angle_beta                  103.9427
_cell_angle_gamma                 106.4928
loop_
_atom_site_label
_atom_site_type_symbol
_atom_site_fract_x
_atom_site_fract_y
_atom_site_fract_z
_atom_site_U_iso_or_equiv
_atom_site_adp_type
_atom_site_occupancy
C1     C     0.52089   0.02082   0.79893   0.00000  Uiso   1.00
C2     C     0.55447   0.03722   0.78779   0.00000  Uiso   1.00
C3     C     0.56493   0.07290   0.77562   0.00000  Uiso   1.00
C4     C     0.54244   0.09401   0.77356   0.00000  Uiso   1.00
C5     C     0.50866   0.07759   0.78395   0.00000  Uiso   1.00
C6     C     0.49825   0.04192   0.79681   0.00000  Uiso   1.00
H7     H     0.57283   0.02203   0.78785   0.00000  Uiso   1.00
H8     H     0.59137   0.08403   0.76762   0.00000  Uiso   1.00
H9     H     0.48997   0.09274   0.78231   0.00000  Uiso   1.00
H10    H     0.47202   0.03054   0.80570   0.00000  Uiso   1.00
C11    C     0.51436   0.12019   0.66608   0.00000  Uiso   1.00
C12    C     0.54350   0.14128   0.69659   0.00000  Uiso   1.00
C13    C     0.56208   0.17150   0.67016   0.00000  Uiso   1.00
C14    C     0.55236   0.17990   0.61524   0.00000  Uiso   1.00
C15    C     0.52302   0.15883   0.58457   0.00000  Uiso   1.00
C16    C     0.50422   0.12885   0.61122   0.00000  Uiso   1.00
C17    C     0.55363   0.13348   0.75777   0.00000  Uiso   1.00
C18    C     0.59398   0.14575   0.77672   0.00000  Uiso   1.00
C19    C     0.60957   0.15881   0.82584   0.00000  Uiso   1.00
C20    C     0.64607   0.16665   0.84409   0.00000  Uiso   1.00
C21    C     0.66834   0.16197   0.81351   0.00000  Uiso   1.00
C22    C     0.65294   0.14985   0.76352   0.00000  Uiso   1.00
C23    C     0.61647   0.14173   0.74569   0.00000  Uiso   1.00
C24    C     0.52091   0.17997   0.75545   0.00000  Uiso   1.00
C25    C     0.50345   0.19644   0.77925   0.00000  Uiso   1.00
C26    C     0.49923   0.18635   0.83232   0.00000  Uiso   1.00
C27    C     0.51407   0.15964   0.86082   0.00000  Uiso   1.00
C28    C     0.53111   0.14285   0.83682   0.00000  Uiso   1.00
C29    C     0.53463   0.15240   0.78338   0.00000  Uiso   1.00
C30    C     0.47775   0.20398   0.85556   0.00000  Uiso   1.00
C31    C     0.36372   0.16842   0.79911   0.00000  Uiso   1.00
C32    C     0.37828   0.18787   0.84269   0.00000  Uiso   1.00
C33    C     0.41463   0.19831   0.86030   0.00000  Uiso   1.00
C34    C     0.43782   0.19004   0.83484   0.00000  Uiso   1.00
C35    C     0.42332   0.17036   0.79186   0.00000  Uiso   1.00
C36    C     0.38679   0.15958   0.77437   0.00000  Uiso   1.00
C37    C     0.48850   0.24315   0.83841   0.00000  Uiso   1.00
C38    C     0.52418   0.26141   0.84970   0.00000  Uiso   1.00
C39    C     0.53449   0.29707   0.83674   0.00000  Uiso   1.00
C40    C     0.50965   0.31598   0.81090   0.00000  Uiso   1.00
C41    C     0.47423   0.29744   0.79769   0.00000  Uiso   1.00
C42    C     0.46393   0.26187   0.81128   0.00000  Uiso   1.00
C43    C     0.50318   0.21921   0.95317   0.00000  Uiso   1.00
C44    C     0.50965   0.20889   0.00810   0.00000  Uiso   1.00
C45    C     0.49747   0.17439   0.02882   0.00000  Uiso   1.00
C46    C     0.47667   0.15099  -0.00759   0.00000  Uiso   1.00
C47    C     0.46977   0.16147   0.93779   0.00000  Uiso   1.00
C48    C     0.48401   0.19552   0.91685   0.00000  Uiso   1.00
H49    H     0.49891   0.09671   0.68505   0.00000  Uiso   1.00
H50    H     0.58455   0.18889   0.69272   0.00000  Uiso   1.00
H51    H     0.56802   0.20322   0.59623   0.00000  Uiso   1.00
H52    H     0.48084   0.11212   0.58923   0.00000  Uiso   1.00
H53    H     0.59339   0.16307   0.85092   0.00000  Uiso   1.00
H54    H     0.65730   0.17678   0.88256   0.00000  Uiso   1.00
H55    H     0.66953   0.14589   0.73878   0.00000  Uiso   1.00
H56    H     0.60544   0.13205   0.70688   0.00000  Uiso   1.00
H57    H     0.52326   0.18893   0.71407   0.00000  Uiso   1.00
H58    H     0.49289   0.21753   0.75571   0.00000  Uiso   1.00
H59    H     0.51260   0.15116   0.90260   0.00000  Uiso   1.00
H60    H     0.54137   0.12160   0.86041   0.00000  Uiso   1.00
H61    H     0.36097   0.19450   0.86345   0.00000  Uiso   1.00
H62    H     0.42527   0.21327   0.89434   0.00000  Uiso   1.00
H63    H     0.44038   0.16318   0.77130   0.00000  Uiso   1.00
H64    H     0.37626   0.14456   0.74038   0.00000  Uiso   1.00
H65    H     0.54429   0.24759   0.86899   0.00000  Uiso   1.00
H66    H     0.56235   0.31029   0.84766   0.00000  Uiso   1.00
H67    H     0.45416   0.31075   0.77592   0.00000  Uiso   1.00
H68    H     0.43607   0.24890   0.79995   0.00000  Uiso   1.00
H69    H     0.51348   0.24624   0.93919   0.00000  Uiso   1.00
H70    H     0.52454   0.22828   0.03497   0.00000  Uiso   1.00
H71    H     0.46630   0.12399   0.00654   0.00000  Uiso   1.00
H72    H     0.45329   0.14268   0.91078   0.00000  Uiso   1.00
C73    C     0.17870   0.01014   0.80179   0.00000  Uiso   1.00
C74    C     0.20947   0.03138   0.82892   0.00000  Uiso   1.00
C75    C     0.21856   0.06686   0.81353   0.00000  Uiso   1.00
C76    C     0.19810   0.08203   0.76916   0.00000  Uiso   1.00
C77    C     0.16622   0.06102   0.74433   0.00000  Uiso   1.00
C78    C     0.15657   0.02568   0.76051   0.00000  Uiso   1.00
H79    H     0.22644   0.02014   0.86256   0.00000  Uiso   1.00
H80    H     0.24237   0.08272   0.83604   0.00000  Uiso   1.00
H81    H     0.14868   0.07209   0.71139   0.00000  Uiso   1.00
H82    H     0.13194   0.00984   0.73983   0.00000  Uiso   1.00
C83    C     0.19560   0.10563   0.65286   0.00000  Uiso   1.00
C84    C     0.19926   0.12909   0.68872   0.00000  Uiso   1.00
C85    C     0.19527   0.16230   0.66788   0.00000  Uiso   1.00
C86    C     0.18529   0.17098   0.61316   0.00000  Uiso   1.00
C87    C     0.17925   0.14668   0.57742   0.00000  Uiso   1.00
C88    C     0.18528   0.11415   0.59796   0.00000  Uiso   1.00
C89    C     0.20973   0.12072   0.74972   0.00000  Uiso   1.00
C90    C     0.25017   0.13416   0.76035   0.00000  Uiso   1.00
C91    C     0.26710   0.16847   0.76942   0.00000  Uiso   1.00
C92    C     0.30381   0.17973   0.78073   0.00000  Uiso   1.00
C93    C     0.32484   0.15732   0.78175   0.00000  Uiso   1.00
C94    C     0.30787   0.12401   0.76741   0.00000  Uiso   1.00
C95    C     0.27117   0.11279   0.75654   0.00000  Uiso   1.00
C96    C     0.15586   0.13946   0.75466   0.00000  Uiso   1.00
C97    C     0.13814   0.15710   0.77582   0.00000  Uiso   1.00
C98    C     0.15515   0.17542   0.81981   0.00000  Uiso   1.00
C99    C     0.18981   0.17341   0.84376   0.00000  Uiso   1.00
C100   C     0.20718   0.15491   0.82353   0.00000  Uiso   1.00
C101   C     0.19104   0.13892   0.77694   0.00000  Uiso   1.00
C102   C     0.13688   0.19484   0.84577   0.00000  Uiso   1.00
C103   C     0.02332   0.17478   0.78076   0.00000  Uiso   1.00
C104   C     0.03547   0.16685   0.83996   0.00000  Uiso   1.00
C105   C     0.07371   0.16920   0.85868   0.00000  Uiso   1.00
C106   C     0.09650   0.18603   0.82540   0.00000  Uiso   1.00
C107   C     0.08339   0.19735   0.77056   0.00000  Uiso   1.00
C108   C     0.04738   0.18759   0.74748   0.00000  Uiso   1.00
C109   C     0.14958   0.23438   0.83423   0.00000  Uiso   1.00
C110   C     0.18072   0.25130   0.81597   0.00000  Uiso   1.00
C111   C     0.19054   0.28727   0.80586   0.00000  Uiso   1.00
C112   C     0.16913   0.30732   0.81261   0.00000  Uiso   1.00
C113   C     0.13800   0.29048   0.83114   0.00000  Uiso   1.00
C114   C     0.12872   0.25471   0.84239   0.00000  Uiso   1.00
C115   C     0.15900   0.20603   0.94493   0.00000  Uiso   1.00
C116   C     0.16816   0.19384   0.99873   0.00000  Uiso   1.00
C117   C     0.16457   0.15848   0.01514   0.00000  Uiso   1.00
C118   C     0.15060   0.13545   0.97614   0.00000  Uiso   1.00
C119   C     0.14131   0.14764   0.92259   0.00000  Uiso   1.00
C120   C     0.14579   0.18317   0.90604   0.00000  Uiso   1.00
H121   H     0.20043   0.08027   0.66756   0.00000  Uiso   1.00
H122   H     0.19942   0.18161   0.69470   0.00000  Uiso   1.00
H123   H     0.18132   0.19664   0.59823   0.00000  Uiso   1.00
H124   H     0.18215   0.09529   0.57081   0.00000  Uiso   1.00
H125   H     0.25175   0.18684   0.76819   0.00000  Uiso   1.00
H126   H     0.31622   0.20641   0.78863   0.00000  Uiso   1.00
H127   H     0.32342   0.10630   0.76606   0.00000  Uiso   1.00
H128   H     0.25884   0.08670   0.74573   0.00000  Uiso   1.00
H129   H     0.14178   0.12612   0.71965   0.00000  Uiso   1.00
H130   H     0.11071   0.15627   0.75717   0.00000  Uiso   1.00
H131   H     0.20353   0.18606   0.87955   0.00000  Uiso   1.00
H132   H     0.23364   0.15328   0.84454   0.00000  Uiso   1.00
H133   H     0.02891   0.18403   0.86273   0.00000  Uiso   1.00
H134   H     0.08263   0.15991   0.90027   0.00000  Uiso   1.00
H135   H     0.10217   0.21243   0.74602   0.00000  Uiso   1.00
H136   H     0.03863   0.19168   0.70417   0.00000  Uiso   1.00
H137   H     0.19766   0.23657   0.80901   0.00000  Uiso   1.00
H138   H     0.21489   0.29981   0.79147   0.00000  Uiso   1.00
H139   H     0.12105   0.30551   0.83724   0.00000  Uiso   1.00
H140   H     0.10453   0.24240   0.85729   0.00000  Uiso   1.00
H141   H     0.16256   0.23371   0.93366   0.00000  Uiso   1.00
H142   H     0.17810   0.21226   0.02825   0.00000  Uiso   1.00
H143   H     0.14767   0.10783  -0.01248   0.00000  Uiso   1.00
H144   H     0.13090   0.12932   0.89292   0.00000  Uiso   1.00
C145   C     0.52021   0.35398   0.79733   0.00000  Uiso   1.00
C146   C     0.55377   0.37070   0.78641   0.00000  Uiso   1.00
C147   C     0.56375   0.40636   0.77376   0.00000  Uiso   1.00
C148   C     0.54078   0.42709   0.77107   0.00000  Uiso   1.00
C149   C     0.50698   0.41033   0.78107   0.00000  Uiso   1.00
C150   C     0.49703   0.37467   0.79436   0.00000  Uiso   1.00
H151   H     0.57247   0.35578   0.78703   0.00000  Uiso   1.00
H152   H     0.59018   0.41779   0.76586   0.00000  Uiso   1.00
H153   H     0.48794   0.42521   0.77877   0.00000  Uiso   1.00
H154   H     0.47077   0.36297   0.80297   0.00000  Uiso   1.00
C155   C     0.51430   0.45235   0.66265   0.00000  Uiso   1.00
C156   C     0.54169   0.47454   0.69412   0.00000  Uiso   1.00
C157   C     0.55913   0.50593   0.66882   0.00000  Uiso   1.00
C158   C     0.54976   0.51465   0.61394   0.00000  Uiso   1.00
C159   C     0.52228   0.49236   0.58237   0.00000  Uiso   1.00
C160   C     0.50476   0.46110   0.60770   0.00000  Uiso   1.00
C161   C     0.55161   0.46656   0.75523   0.00000  Uiso   1.00
C162   C     0.59197   0.47894   0.77387   0.00000  Uiso   1.00
C163   C     0.60780   0.49109   0.82356   0.00000  Uiso   1.00
C164   C     0.64434   0.49872   0.84134   0.00000  Uiso   1.00
C165   C     0.66633   0.49470   0.80971   0.00000  Uiso   1.00
C166   C     0.65067   0.48351   0.75918   0.00000  Uiso   1.00
C167   C     0.61417   0.47558   0.74182   0.00000  Uiso   1.00
C168   C     0.51898   0.51306   0.75355   0.00000  Uiso   1.00
C169   C     0.50206   0.52980   0.77786   0.00000  Uiso   1.00
C170   C     0.49810   0.51973   0.83107   0.00000  Uiso   1.00
C171   C     0.51226   0.49241   0.85880   0.00000  Uiso   1.00
C172   C     0.52896   0.47551   0.83440   0.00000  Uiso   1.00
C173   C     0.53258   0.48533   0.78105   0.00000  Uiso   1.00
C174   C     0.47767   0.53767   0.85586   0.00000  Uiso   1.00
C175   C     0.36329   0.50409   0.79910   0.00000  Uiso   1.00
C176   C     0.37797   0.51873   0.84731   0.00000  Uiso   1.00
C177   C     0.41438   0.52836   0.86533   0.00000  Uiso   1.00
C178   C     0.43754   0.52433   0.83549   0.00000  Uiso   1.00
C179   C     0.42279   0.50944   0.78770   0.00000  Uiso   1.00
C180   C     0.38625   0.49920   0.76994   0.00000  Uiso   1.00
C181   C     0.48844   0.57716   0.84099   0.00000  Uiso   1.00
C182   C     0.52293   0.59415   0.83435   0.00000  Uiso   1.00
C183   C     0.53306   0.62982   0.82159   0.00000  Uiso   1.00
C184   C     0.50954   0.65059   0.81624   0.00000  Uiso   1.00
C185   C     0.47527   0.63350   0.82405   0.00000  Uiso   1.00
C186   C     0.46498   0.59777   0.83564   0.00000  Uiso   1.00
C187   C     0.50886   0.55181   0.95189   0.00000  Uiso   1.00
C188   C     0.51684   0.54166   0.00674   0.00000  Uiso   1.00
C189   C     0.50251   0.50795   0.02868   0.00000  Uiso   1.00
C190   C     0.47868   0.48519  -0.00653   0.00000  Uiso   1.00
C191   C     0.47013   0.49557   0.93904   0.00000  Uiso   1.00
C192   C     0.48563   0.52889   0.91699   0.00000  Uiso   1.00
H193   H     0.49990   0.42793   0.68084   0.00000  Uiso   1.00
H194   H     0.58043   0.52387   0.69233   0.00000  Uiso   1.00
H195   H     0.56421   0.53898   0.59553   0.00000  Uiso   1.00
H196   H     0.48287   0.44350   0.58449   0.00000  Uiso   1.00
H197   H     0.59178   0.49473   0.84942   0.00000  Uiso   1.00
H198   H     0.65583   0.50813   0.88030   0.00000  Uiso   1.00
H199   H     0.66705   0.48005   0.73369   0.00000  Uiso   1.00
H200   H     0.60288   0.46648   0.70265   0.00000  Uiso   1.00
H201   H     0.52107   0.52209   0.71210   0.00000  Uiso   1.00
H202   H     0.49196   0.55124   0.75464   0.00000  Uiso   1.00
H203   H     0.51064   0.48357   0.90045   0.00000  Uiso   1.00
H204   H     0.53893   0.45400   0.85765   0.00000  Uiso   1.00
H205   H     0.36071   0.52215   0.87141   0.00000  Uiso   1.00
H206   H     0.42488   0.53898   0.90351   0.00000  Uiso   1.00
H207   H     0.43963   0.50540   0.76349   0.00000  Uiso   1.00
H208   H     0.37562   0.48780   0.73240   0.00000  Uiso   1.00
H209   H     0.54238   0.57939   0.83883   0.00000  Uiso   1.00
H210   H     0.55994   0.64134   0.81554   0.00000  Uiso   1.00
H211   H     0.45590   0.64804   0.82146   0.00000  Uiso   1.00
H212   H     0.43788   0.58621   0.84050   0.00000  Uiso   1.00
H213   H     0.52116   0.57804   0.93659   0.00000  Uiso   1.00
H214   H     0.53469   0.56056   0.03251   0.00000  Uiso   1.00
H215   H     0.46700   0.45865   0.00822   0.00000  Uiso   1.00
H216   H     0.45138   0.47725   0.91307   0.00000  Uiso   1.00
C217   C     0.17859   0.34554   0.79923   0.00000  Uiso   1.00
C218   C     0.21007   0.36634   0.82541   0.00000  Uiso   1.00
C219   C     0.21925   0.40191   0.81081   0.00000  Uiso   1.00
C220   C     0.19809   0.41760   0.76815   0.00000  Uiso   1.00
C221   C     0.16564   0.39700   0.74422   0.00000  Uiso   1.00
C222   C     0.15594   0.36157   0.75964   0.00000  Uiso   1.00
H223   H     0.22754   0.35469   0.85770   0.00000  Uiso   1.00
H224   H     0.24365   0.41740   0.83259   0.00000  Uiso   1.00
H225   H     0.14773   0.40852   0.71251   0.00000  Uiso   1.00
H226   H     0.13084   0.34605   0.73968   0.00000  Uiso   1.00
C227   C     0.19625   0.44119   0.65282   0.00000  Uiso   1.00
C228   C     0.19879   0.46464   0.68816   0.00000  Uiso   1.00
C229   C     0.19436   0.49757   0.66642   0.00000  Uiso   1.00
C230   C     0.18563   0.50607   0.61137   0.00000  Uiso   1.00
C231   C     0.18147   0.48203   0.57594   0.00000  Uiso   1.00
C232   C     0.18741   0.44959   0.59763   0.00000  Uiso   1.00
C233   C     0.20934   0.45643   0.74923   0.00000  Uiso   1.00
C234   C     0.24976   0.47021   0.75972   0.00000  Uiso   1.00
C235   C     0.26666   0.50388   0.77228   0.00000  Uiso   1.00
C236   C     0.30339   0.51507   0.78403   0.00000  Uiso   1.00
C237   C     0.32436   0.49339   0.78153   0.00000  Uiso   1.00
C238   C     0.30744   0.46098   0.76365   0.00000  Uiso   1.00
C239   C     0.27075   0.44970   0.75280   0.00000  Uiso   1.00
C240   C     0.15593   0.47552   0.75627   0.00000  Uiso   1.00
C241   C     0.13843   0.49173   0.78039   0.00000  Uiso   1.00
C242   C     0.15525   0.50751   0.82696   0.00000  Uiso   1.00
C243   C     0.18960   0.50424   0.85025   0.00000  Uiso   1.00
C244   C     0.20671   0.48705   0.82705   0.00000  Uiso   1.00
C245   C     0.19081   0.47381   0.77807   0.00000  Uiso   1.00
C246   C     0.13741   0.52656   0.85447   0.00000  Uiso   1.00
C247   C     0.02399   0.50541   0.78852   0.00000  Uiso   1.00
C248   C     0.03573   0.49757   0.84787   0.00000  Uiso   1.00
C249   C     0.07404   0.49994   0.86682   0.00000  Uiso   1.00
C250   C     0.09696   0.51771   0.83421   0.00000  Uiso   1.00
C251   C     0.08400   0.52974   0.77960   0.00000  Uiso   1.00
C252   C     0.04821   0.51916   0.75574   0.00000  Uiso   1.00
C253   C     0.15011   0.56616   0.84260   0.00000  Uiso   1.00
C254   C     0.18160   0.58300   0.82529   0.00000  Uiso   1.00
C255   C     0.19115   0.61891   0.81381   0.00000  Uiso   1.00
C256   C     0.16915   0.63903   0.81827   0.00000  Uiso   1.00
C257   C     0.13782   0.62230   0.83632   0.00000  Uiso   1.00
C258   C     0.12880   0.58661   0.84891   0.00000  Uiso   1.00
C259   C     0.15676   0.53801   0.95371   0.00000  Uiso   1.00
C260   C     0.16427   0.52617   1.00800   0.00000  Uiso   1.00
C261   C     0.16157   0.49101   0.02538   0.00000  Uiso   1.00
C262   C     0.15059   0.46798   0.98635   0.00000  Uiso   1.00
C263   C     0.14291   0.47981   0.93228   0.00000  Uiso   1.00
C264   C     0.14616   0.51510   0.91490   0.00000  Uiso   1.00
H265   H     0.20102   0.41587   0.66818   0.00000  Uiso   1.00
H266   H     0.19741   0.51688   0.69274   0.00000  Uiso   1.00
H267   H     0.18141   0.53158   0.59587   0.00000  Uiso   1.00
H268   H     0.18552   0.43072   0.57120   0.00000  Uiso   1.00
H269   H     0.25127   0.52172   0.77365   0.00000  Uiso   1.00
H270   H     0.31587   0.54110   0.79507   0.00000  Uiso   1.00
H271   H     0.32306   0.44399   0.75961   0.00000  Uiso   1.00
H272   H     0.25839   0.42422   0.73955   0.00000  Uiso   1.00
H273   H     0.14185   0.46419   0.71947   0.00000  Uiso   1.00
H274   H     0.11117   0.49175   0.76181   0.00000  Uiso   1.00
H275   H     0.20329   0.51489   0.88774   0.00000  Uiso   1.00
H276   H     0.23290   0.48430   0.84768   0.00000  Uiso   1.00
H277   H     0.02919   0.51491   0.87037   0.00000  Uiso   1.00
H278   H     0.08282   0.49001   0.90813   0.00000  Uiso   1.00
H279   H     0.10274   0.54597   0.75583   0.00000  Uiso   1.00
H280   H     0.03973   0.52351   0.71242   0.00000  Uiso   1.00
H281   H     0.19903   0.56823   0.82004   0.00000  Uiso   1.00
H282   H     0.21575   0.63132   0.80006   0.00000  Uiso   1.00
H283   H     0.12044   0.63736   0.84089   0.00000  Uiso   1.00
H284   H     0.10436   0.57446   0.86322   0.00000  Uiso   1.00
H285   H     0.15942   0.56555   0.94200   0.00000  Uiso   1.00
H286   H     0.17207   0.54476   0.03710   0.00000  Uiso   1.00
H287   H     0.14855   0.44052  -0.00180   0.00000  Uiso   1.00
H288   H     0.13456   0.46131   0.90296   0.00000  Uiso   1.00
C289   C     0.86019   0.33973   0.82854   0.00000  Uiso   1.00
C290   C     0.87764   0.35414   0.78586   0.00000  Uiso   1.00
C291   C     0.88647   0.38960   0.77141   0.00000  Uiso   1.00
C292   C     0.87707   0.41192   0.79772   0.00000  Uiso   1.00
C293   C     0.85980   0.39774   0.84030   0.00000  Uiso   1.00
C294   C     0.85172   0.36229   0.85567   0.00000  Uiso   1.00
H295   H     0.88444   0.33759   0.76334   0.00000  Uiso   1.00
H296   H     0.90090   0.40012   0.73915   0.00000  Uiso   1.00
H297   H     0.85272   0.41432   0.86240   0.00000  Uiso   1.00
H298   H     0.83909   0.35238   0.88992   0.00000  Uiso   1.00
C299   C     0.85231   0.43847   0.68911   0.00000  Uiso   1.00
C300   C     0.87718   0.46144   0.72253   0.00000  Uiso   1.00
C301   C     0.88901   0.49573   0.70060   0.00000  Uiso   1.00
C302   C     0.87853   0.50591   0.64632   0.00000  Uiso   1.00
C303   C     0.85501   0.48235   0.61223   0.00000  Uiso   1.00
C304   C     0.84145   0.44869   0.63499   0.00000  Uiso   1.00
C305   C     0.88917   0.45104   0.78252   0.00000  Uiso   1.00
C306   C     0.92963   0.45856   0.80118   0.00000  Uiso   1.00
C307   C     0.94231   0.44842   0.85676   0.00000  Uiso   1.00
C308   C     0.97825   0.45657   0.87967   0.00000  Uiso   1.00
C309   C     1.00253   0.46766   0.84646   0.00000  Uiso   1.00
C310   C     0.99092   0.47500   0.78700   0.00000  Uiso   1.00
C311   C     0.95261   0.47252   0.76730   0.00000  Uiso   1.00
C312   C     0.83554   0.46603   0.79542   0.00000  Uiso   1.00
C313   C     0.81820   0.48301   0.81839   0.00000  Uiso   1.00
C314   C     0.83698   0.50484   0.85759   0.00000  Uiso   1.00
C315   C     0.87355   0.50860   0.87349   0.00000  Uiso   1.00
C316   C     0.89103   0.49226   0.84957   0.00000  Uiso   1.00
C317   C     0.87220   0.47046   0.81039   0.00000  Uiso   1.00
C318   C     0.81940   0.52420   0.88458   0.00000  Uiso   1.00
C319   C     0.70506   0.50156   0.82903   0.00000  Uiso   1.00
C320   C     0.71946   0.49063   0.88190   0.00000  Uiso   1.00
C321   C     0.75592   0.49687   0.90006   0.00000  Uiso   1.00
C322   C     0.77900   0.51446   0.86601   0.00000  Uiso   1.00
C323   C     0.76453   0.52543   0.81300   0.00000  Uiso   1.00
C324   C     0.72819   0.51888   0.79462   0.00000  Uiso   1.00
C325   C     0.83119   0.56345   0.86936   0.00000  Uiso   1.00
C326   C     0.85968   0.57950   0.84432   0.00000  Uiso   1.00
C327   C     0.86877   0.61513   0.83089   0.00000  Uiso   1.00
C328   C     0.84919   0.63599   0.84092   0.00000  Uiso   1.00
C329   C     0.82029   0.61983   0.86552   0.00000  Uiso   1.00
C330   C     0.81167   0.58434   0.87974   0.00000  Uiso   1.00
C331   C     0.83985   0.53831   0.98261   0.00000  Uiso   1.00
C332   C     0.84844   0.52783   0.03723   0.00000  Uiso   1.00
C333   C     0.84771   0.49322   0.05634   0.00000  Uiso   1.00
C334   C     0.83810   0.46940   0.01864   0.00000  Uiso   1.00
C335   C     0.82916   0.47983   0.96426   0.00000  Uiso   1.00
C336   C     0.82990   0.51450   0.94523   0.00000  Uiso   1.00
H337   H     0.84090   0.41214   0.70503   0.00000  Uiso   1.00
H338   H     0.90669   0.51480   0.72627   0.00000  Uiso   1.00
H339   H     0.88918   0.53247   0.63034   0.00000  Uiso   1.00
H340   H     0.82179   0.43014   0.61041   0.00000  Uiso   1.00
H341   H     0.92321   0.43577   0.88200   0.00000  Uiso   1.00
H342   H     0.98697   0.45320   0.92305   0.00000  Uiso   1.00
H343   H    -0.00189   0.45788   0.76496   0.00000  Uiso   1.00
H344   H     0.94389   0.47995   0.72486   0.00000  Uiso   1.00
H345   H     0.82012   0.44897   0.76526   0.00000  Uiso   1.00
H346   H     0.78967   0.47864   0.80556   0.00000  Uiso   1.00
H347   H     0.88876   0.52437   0.90542   0.00000  Uiso   1.00
H348   H     0.91958   0.49665   0.86226   0.00000  Uiso   1.00
H349   H     0.70203   0.47678   0.90922   0.00000  Uiso   1.00
H350   H     0.76613   0.48804   0.94145   0.00000  Uiso   1.00
H351   H     0.78202   0.53971   0.78597   0.00000  Uiso   1.00
H352   H     0.71769   0.52800   0.75346   0.00000  Uiso   1.00
H353   H     0.87528   0.56450   0.83438   0.00000  Uiso   1.00
H354   H     0.89167   0.62662   0.81252   0.00000  Uiso   1.00
H355   H     0.80386   0.63493   0.87299   0.00000  Uiso   1.00
H356   H     0.78892   0.57261   0.89840   0.00000  Uiso   1.00
H357   H     0.84103   0.56550   0.96960   0.00000  Uiso   1.00
H358   H     0.85540   0.54703   0.06521   0.00000  Uiso   1.00
H359   H     0.83796   0.44241   0.03175   0.00000  Uiso   1.00
H360   H     0.82165   0.46070   0.93606   0.00000  Uiso   1.00
C361   C     0.52029   0.68863   0.80290   0.00000  Uiso   1.00
C362   C     0.55607   0.70651   0.80785   0.00000  Uiso   1.00
C363   C     0.56639   0.74198   0.79350   0.00000  Uiso   1.00
C364   C     0.54163   0.76168   0.77444   0.00000  Uiso   1.00
C365   C     0.50589   0.74422   0.77165   0.00000  Uiso   1.00
C366   C     0.49547   0.70859   0.78481   0.00000  Uiso   1.00
H367   H     0.57672   0.69285   0.82332   0.00000  Uiso   1.00
H368   H     0.59455   0.75405   0.79782   0.00000  Uiso   1.00
H369   H     0.48568   0.75862   0.75893   0.00000  Uiso   1.00
H370   H     0.46729   0.69639   0.78023   0.00000  Uiso   1.00
C371   C     0.51760   0.78519   0.66219   0.00000  Uiso   1.00
C372   C     0.54309   0.80813   0.69485   0.00000  Uiso   1.00
C373   C     0.55995   0.84007   0.67015   0.00000  Uiso   1.00
C374   C     0.55139   0.84884   0.61516   0.00000  Uiso   1.00
C375   C     0.52521   0.82607   0.58255   0.00000  Uiso   1.00
C376   C     0.50869   0.79405   0.60716   0.00000  Uiso   1.00
C377   C     0.55236   0.80079   0.75621   0.00000  Uiso   1.00
C378   C     0.59263   0.81378   0.77454   0.00000  Uiso   1.00
C379   C     0.60850   0.82902   0.82180   0.00000  Uiso   1.00
C380   C     0.64507   0.83686   0.83956   0.00000  Uiso   1.00
C381   C     0.66685   0.83010   0.81012   0.00000  Uiso   1.00
C382   C     0.65113   0.81597   0.76170   0.00000  Uiso   1.00
C383   C     0.61463   0.80768   0.74456   0.00000  Uiso   1.00
C384   C     0.51852   0.84672   0.75329   0.00000  Uiso   1.00
C385   C     0.50118   0.86304   0.77757   0.00000  Uiso   1.00
C386   C     0.49744   0.85295   0.83086   0.00000  Uiso   1.00
C387   C     0.51235   0.82619   0.85895   0.00000  Uiso   1.00
C388   C     0.52937   0.80964   0.83455   0.00000  Uiso   1.00
C389   C     0.53275   0.81946   0.78112   0.00000  Uiso   1.00
C390   C     0.47643   0.87070   0.85488   0.00000  Uiso   1.00
C391   C     0.36216   0.83600   0.79930   0.00000  Uiso   1.00
C392   C     0.37705   0.85502   0.84332   0.00000  Uiso   1.00
C393   C     0.41346   0.86522   0.86066   0.00000  Uiso   1.00
C394   C     0.43640   0.85713   0.83450   0.00000  Uiso   1.00
C395   C     0.42156   0.83791   0.79103   0.00000  Uiso   1.00
C396   C     0.38499   0.82739   0.77379   0.00000  Uiso   1.00
C397   C     0.48761   0.90990   0.83828   0.00000  Uiso   1.00
C398   C     0.52350   0.92762   0.84873   0.00000  Uiso   1.00
C399   C     0.53431   0.96328   0.83634   0.00000  Uiso   1.00
C400   C     0.50978   0.98280   0.81188   0.00000  Uiso   1.00
C401   C     0.47410   0.96480   0.79950   0.00000  Uiso   1.00
C402   C     0.46330   0.92922   0.81258   0.00000  Uiso   1.00
C403   C     0.50350   0.88514   0.95261   0.00000  Uiso   1.00
C404   C     0.51085   0.87435   0.00733   0.00000  Uiso   1.00
C405   C     0.49852   0.83980   0.02771   0.00000  Uiso   1.00
C406   C     0.47664   0.81690  -0.00879   0.00000  Uiso   1.00
C407   C     0.46885   0.82784   0.93685   0.00000  Uiso   1.00
C408   C     0.48324   0.86190   0.91613   0.00000  Uiso   1.00
H409   H     0.50408   0.75995   0.67919   0.00000  Uiso   1.00
H410   H     0.58026   0.85842   0.69433   0.00000  Uiso   1.00
H411   H     0.56544   0.87367   0.59755   0.00000  Uiso   1.00
H412   H     0.48800   0.77577   0.58338   0.00000  Uiso   1.00
H413   H     0.59249   0.83473   0.84579   0.00000  Uiso   1.00
H414   H     0.65674   0.84850   0.87675   0.00000  Uiso   1.00
H415   H     0.66750   0.81044   0.73807   0.00000  Uiso   1.00
H416   H     0.60301   0.79582   0.70755   0.00000  Uiso   1.00
H417   H     0.52042   0.85561   0.71173   0.00000  Uiso   1.00
H418   H     0.49040   0.88406   0.75428   0.00000  Uiso   1.00
H419   H     0.51106   0.81757   0.90075   0.00000  Uiso   1.00
H420   H     0.53993   0.78847   0.85781   0.00000  Uiso   1.00
H421   H     0.35996   0.86150   0.86468   0.00000  Uiso   1.00
H422   H     0.42434   0.87982   0.89509   0.00000  Uiso   1.00
H423   H     0.43836   0.83085   0.76987   0.00000  Uiso   1.00
H424   H     0.37424   0.81274   0.73941   0.00000  Uiso   1.00
H425   H     0.54340   0.91334   0.86689   0.00000  Uiso   1.00
H426   H     0.56236   0.97603   0.84662   0.00000  Uiso   1.00
H427   H     0.45419   0.97857   0.77881   0.00000  Uiso   1.00
H428   H     0.43526   0.91671   0.80201   0.00000  Uiso   1.00
H429   H     0.51401   0.91218   0.93891   0.00000  Uiso   1.00
H430   H     0.52659   0.89342   0.03429   0.00000  Uiso   1.00
H431   H     0.46610   0.78986   0.00496   0.00000  Uiso   1.00
H432   H     0.45163   0.80939   0.90981   0.00000  Uiso   1.00
C433   C     0.17820   0.67715   0.80319   0.00000  Uiso   1.00
C434   C     0.20892   0.69871   0.82985   0.00000  Uiso   1.00
C435   C     0.21769   0.73414   0.81398   0.00000  Uiso   1.00
C436   C     0.19696   0.74902   0.76962   0.00000  Uiso   1.00
C437   C     0.16522   0.72768   0.74506   0.00000  Uiso   1.00
C438   C     0.15590   0.69235   0.76169   0.00000  Uiso   1.00
H439   H     0.22609   0.68777   0.86355   0.00000  Uiso   1.00
H440   H     0.24147   0.75023   0.83620   0.00000  Uiso   1.00
H441   H     0.14749   0.73850   0.71208   0.00000  Uiso   1.00
H442   H     0.13133   0.67628   0.74126   0.00000  Uiso   1.00
C443   C     0.19487   0.77345   0.65324   0.00000  Uiso   1.00
C444   C     0.19745   0.79643   0.68935   0.00000  Uiso   1.00
C445   C     0.19302   0.82949   0.66841   0.00000  Uiso   1.00
C446   C     0.18432   0.83859   0.61351   0.00000  Uiso   1.00
C447   C     0.17995   0.81495   0.57735   0.00000  Uiso   1.00
C448   C     0.18583   0.78238   0.59818   0.00000  Uiso   1.00
C449   C     0.20813   0.78781   0.75036   0.00000  Uiso   1.00
C450   C     0.24857   0.80148   0.76069   0.00000  Uiso   1.00
C451   C     0.26538   0.83562   0.77092   0.00000  Uiso   1.00
C452   C     0.30209   0.84701   0.78225   0.00000  Uiso   1.00
C453   C     0.32324   0.82492   0.78219   0.00000  Uiso   1.00
C454   C     0.30636   0.79181   0.76689   0.00000  Uiso   1.00
C455   C     0.26967   0.78045   0.75600   0.00000  Uiso   1.00
C456   C     0.15462   0.80619   0.75835   0.00000  Uiso   1.00
C457   C     0.13727   0.82284   0.78195   0.00000  Uiso   1.00
C458   C     0.15450   0.83981   0.82733   0.00000  Uiso   1.00
C459   C     0.18906   0.83708   0.85027   0.00000  Uiso   1.00
C460   C     0.20613   0.81961   0.82746   0.00000  Uiso   1.00
C461   C     0.18981   0.80529   0.77942   0.00000  Uiso   1.00
C462   C     0.13689   0.85975   0.85365   0.00000  Uiso   1.00
C463   C     0.02348   0.83835   0.78767   0.00000  Uiso   1.00
C464   C     0.03515   0.83101   0.84712   0.00000  Uiso   1.00
C465   C     0.07346   0.83356   0.86644   0.00000  Uiso   1.00
C466   C     0.09642   0.85075   0.83360   0.00000  Uiso   1.00
C467   C     0.08353   0.86206   0.77861   0.00000  Uiso   1.00
C468   C     0.04774   0.85150   0.75484   0.00000  Uiso   1.00
C469   C     0.14954   0.89921   0.84018   0.00000  Uiso   1.00
C470   C     0.18117   0.91576   0.82313   0.00000  Uiso   1.00
C471   C     0.19105   0.95167   0.81181   0.00000  Uiso   1.00
C472   C     0.16925   0.97200   0.81618   0.00000  Uiso   1.00
C473   C     0.13762   0.95553   0.83354   0.00000  Uiso   1.00
C474   C     0.12828   0.91986   0.84601   0.00000  Uiso   1.00
C475   C     0.15859   0.87415   0.95129   0.00000  Uiso   1.00
C476   C     0.16671   0.86387   0.00606   0.00000  Uiso   1.00
C477   C     0.16246   0.82888   0.02576   0.00000  Uiso   1.00
C478   C     0.14971   0.80442   0.98883   0.00000  Uiso   1.00
C479   C     0.14180   0.81475   0.93422   0.00000  Uiso   1.00
C480   C     0.14613   0.84984   0.91446   0.00000  Uiso   1.00
H481   H     0.19978   0.74811   0.66788   0.00000  Uiso   1.00
H482   H     0.19605   0.84847   0.69528   0.00000  Uiso   1.00
H483   H     0.18024   0.86422   0.59866   0.00000  Uiso   1.00
H484   H     0.18377   0.76382   0.57112   0.00000  Uiso   1.00
H485   H     0.24990   0.85371   0.77067   0.00000  Uiso   1.00
H486   H     0.31440   0.87353   0.79106   0.00000  Uiso   1.00
H487   H     0.32199   0.77434   0.76482   0.00000  Uiso   1.00
H488   H     0.25744   0.75450   0.74454   0.00000  Uiso   1.00
H489   H     0.14026   0.79394   0.72242   0.00000  Uiso   1.00
H490   H     0.10983   0.82235   0.76388   0.00000  Uiso   1.00
H491   H     0.20303   0.84852   0.88704   0.00000  Uiso   1.00
H492   H     0.23262   0.81755   0.84758   0.00000  Uiso   1.00
H493   H     0.02844   0.84854   0.86906   0.00000  Uiso   1.00
H494   H     0.08222   0.82425   0.90808   0.00000  Uiso   1.00
H495   H     0.10236   0.87773   0.75455   0.00000  Uiso   1.00
H496   H     0.03928   0.85536   0.71146   0.00000  Uiso   1.00
H497   H     0.19850   0.90078   0.81817   0.00000  Uiso   1.00
H498   H     0.21581   0.96392   0.79845   0.00000  Uiso   1.00
H499   H     0.12037   0.97079   0.83787   0.00000  Uiso   1.00
H500   H     0.10376   0.90789   0.86013   0.00000  Uiso   1.00
H501   H     0.16229   0.90160   0.93767   0.00000  Uiso   1.00
H502   H     0.17614   0.88346   0.03372   0.00000  Uiso   1.00
H503   H     0.14656   0.77704   0.00286   0.00000  Uiso   1.00
H504   H     0.13235   0.79526   0.90638   0.00000  Uiso   1.00
C505   C     0.85852   0.67372   0.82573   0.00000  Uiso   1.00
C506   C     0.87631   0.68831   0.78349   0.00000  Uiso   1.00
C507   C     0.88550   0.72384   0.76984   0.00000  Uiso   1.00
C508   C     0.87623   0.74598   0.79668   0.00000  Uiso   1.00
C509   C     0.85870   0.73158   0.83892   0.00000  Uiso   1.00
C510   C     0.85015   0.69604   0.85339   0.00000  Uiso   1.00
H511   H     0.88301   0.67184   0.76071   0.00000  Uiso   1.00
H512   H     0.90006   0.73457   0.73777   0.00000  Uiso   1.00
H513   H     0.85175   0.74803   0.86140   0.00000  Uiso   1.00
H514   H     0.83725   0.68581   0.88732   0.00000  Uiso   1.00
C515   C     0.85108   0.77297   0.68895   0.00000  Uiso   1.00
C516   C     0.87658   0.79570   0.72211   0.00000  Uiso   1.00
C517   C     0.88904   0.82976   0.69980   0.00000  Uiso   1.00
C518   C     0.87861   0.83983   0.64545   0.00000  Uiso   1.00
C519   C     0.85441   0.81648   0.61159   0.00000  Uiso   1.00
C520   C     0.84018   0.78313   0.63483   0.00000  Uiso   1.00
C521   C     0.88862   0.78513   0.78205   0.00000  Uiso   1.00
C522   C     0.92906   0.79228   0.80067   0.00000  Uiso   1.00
C523   C     0.94169   0.78210   0.85628   0.00000  Uiso   1.00
C524   C     0.97762   0.79021   0.87923   0.00000  Uiso   1.00
C525   C     1.00195   0.80109   0.84606   0.00000  Uiso   1.00
C526   C     0.99033   0.80807   0.78652   0.00000  Uiso   1.00
C527   C     0.95207   0.80587   0.76677   0.00000  Uiso   1.00
C528   C     0.83525   0.80021   0.79582   0.00000  Uiso   1.00
C529   C     0.81809   0.81694   0.81956   0.00000  Uiso   1.00
C530   C     0.83700   0.83831   0.85932   0.00000  Uiso   1.00
C531   C     0.87351   0.84170   0.87516   0.00000  Uiso   1.00
C532   C     0.89083   0.82565   0.85044   0.00000  Uiso   1.00
C533   C     0.87189   0.80443   0.81053   0.00000  Uiso   1.00
C534   C     0.81970   0.85785   0.88648   0.00000  Uiso   1.00
C535   C     0.70555   0.83680   0.82986   0.00000  Uiso   1.00
C536   C     0.71957   0.82646   0.88317   0.00000  Uiso   1.00
C537   C     0.75597   0.83213   0.90170   0.00000  Uiso   1.00
C538   C     0.77931   0.84869   0.86760   0.00000  Uiso   1.00
C539   C     0.76520   0.85930   0.81424   0.00000  Uiso   1.00
C540   C     0.72891   0.85314   0.79543   0.00000  Uiso   1.00
C541   C     0.83200   0.89709   0.87148   0.00000  Uiso   1.00
C542   C     0.86105   0.91299   0.84761   0.00000  Uiso   1.00
C543   C     0.87049   0.94861   0.83431   0.00000  Uiso   1.00
C544   C     0.85069   0.96970   0.84305   0.00000  Uiso   1.00
C545   C     0.82129   0.95366   0.86664   0.00000  Uiso   1.00
C546   C     0.81240   0.91821   0.88099   0.00000  Uiso   1.00
C547   C     0.84063   0.87203   0.98438   0.00000  Uiso   1.00
C548   C     0.84889   0.86156   0.03905   0.00000  Uiso   1.00
C549   C     0.84698   0.82676   0.05831   0.00000  Uiso   1.00
C550   C     0.83665   0.80277   0.02078   0.00000  Uiso   1.00
C551   C     0.82818   0.81323   0.96631   0.00000  Uiso   1.00
C552   C     0.82996   0.84806   0.94713   0.00000  Uiso   1.00
H553   H     0.83920   0.74685   0.70512   0.00000  Uiso   1.00
H554   H     0.90719   0.84876   0.72518   0.00000  Uiso   1.00
H555   H     0.88986   0.86618   0.62929   0.00000  Uiso   1.00
H556   H     0.81996   0.76474   0.61064   0.00000  Uiso   1.00
H557   H     0.92255   0.76948   0.88146   0.00000  Uiso   1.00
H558   H     0.98631   0.78693   0.92262   0.00000  Uiso   1.00
H559   H    -0.00269   0.79064   0.76479   0.00000  Uiso   1.00
H560   H     0.94342   0.81321   0.72428   0.00000  Uiso   1.00
H561   H     0.81968   0.78353   0.76522   0.00000  Uiso   1.00
H562   H     0.78957   0.81270   0.80684   0.00000  Uiso   1.00
H563   H     0.88883   0.85696   0.90765   0.00000  Uiso   1.00
H564   H     0.91936   0.82986   0.86308   0.00000  Uiso   1.00
H565   H     0.70189   0.81347   0.91051   0.00000  Uiso   1.00
H566   H     0.76592   0.82370   0.94339   0.00000  Uiso   1.00
H567   H     0.78292   0.87297   0.78724   0.00000  Uiso   1.00
H568   H     0.71862   0.86178   0.75393   0.00000  Uiso   1.00
H569   H     0.87683   0.89788   0.83846   0.00000  Uiso   1.00
H570   H     0.89385   0.95985   0.81693   0.00000  Uiso   1.00
H571   H     0.80465   0.96881   0.87330   0.00000  Uiso   1.00
H572   H     0.78935   0.90668   0.89903   0.00000  Uiso   1.00
H573   H     0.84260   0.89933   0.97119   0.00000  Uiso   1.00
H574   H     0.85648   0.88087   0.06697   0.00000  Uiso   1.00
H575   H     0.83560   0.77562   0.03414   0.00000  Uiso   1.00
H576   H     0.82016   0.79401   0.93817   0.00000  Uiso   1.00
C577   C     0.50710   0.00914   0.28801   0.00000  Uiso   1.00
C578   C     0.51434   0.02403   0.23753   0.00000  Uiso   1.00
C579   C     0.52530   0.05971   0.22581   0.00000  Uiso   1.00
C580   C     0.52852   0.08170   0.26373   0.00000  Uiso   1.00
C581   C     0.52220   0.06688   0.31461   0.00000  Uiso   1.00
C582   C     0.51161   0.03125   0.32657   0.00000  Uiso   1.00
H583   H     0.51115   0.00769   0.20660   0.00000  Uiso   1.00
H584   H     0.53124   0.07040   0.18651   0.00000  Uiso   1.00
H585   H     0.52559   0.08331   0.34550   0.00000  Uiso   1.00
H586   H     0.50735   0.02054   0.36672   0.00000  Uiso   1.00
C587   C     0.49709   0.11935   0.16299   0.00000  Uiso   1.00
C588   C     0.52964   0.13506   0.19374   0.00000  Uiso   1.00
C589   C     0.54956   0.16600   0.17119   0.00000  Uiso   1.00
C590   C     0.53889   0.17903   0.11830   0.00000  Uiso   1.00
C591   C     0.50723   0.16224   0.08634   0.00000  Uiso   1.00
C592   C     0.48607   0.13267   0.11039   0.00000  Uiso   1.00
C593   C     0.54149   0.12100   0.25228   0.00000  Uiso   1.00
C594   C     0.58178   0.12801   0.26946   0.00000  Uiso   1.00
C595   C     0.59870   0.13136   0.32347   0.00000  Uiso   1.00
C596   C     0.63475   0.13945   0.33608   0.00000  Uiso   1.00
C597   C     0.65685   0.14359   0.30066   0.00000  Uiso   1.00
C598   C     0.63957   0.13681   0.24792   0.00000  Uiso   1.00
C599   C     0.60289   0.12917   0.23313   0.00000  Uiso   1.00
C600   C     0.48895   0.12717   0.28326   0.00000  Uiso   1.00
C601   C     0.47203   0.14466   0.30610   0.00000  Uiso   1.00
C602   C     0.49078   0.17496   0.32910   0.00000  Uiso   1.00
C603   C     0.52712   0.18655   0.33009   0.00000  Uiso   1.00
C604   C     0.54375   0.16979   0.30544   0.00000  Uiso   1.00
C605   C     0.52498   0.13949   0.28237   0.00000  Uiso   1.00
C606   C     0.47333   0.19468   0.35558   0.00000  Uiso   1.00
C607   C     0.35858   0.16134   0.30935   0.00000  Uiso   1.00
C608   C     0.37505   0.15991   0.36361   0.00000  Uiso   1.00
C609   C     0.41167   0.17053   0.37919   0.00000  Uiso   1.00
C610   C     0.43288   0.18261   0.34097   0.00000  Uiso   1.00
C611   C     0.41635   0.18518   0.28668   0.00000  Uiso   1.00
C612   C     0.37983   0.17457   0.27103   0.00000  Uiso   1.00
C613   C     0.48176   0.23340   0.33573   0.00000  Uiso   1.00
C614   C     0.49901   0.24751   0.29308   0.00000  Uiso   1.00
C615   C     0.50742   0.28294   0.27771   0.00000  Uiso   1.00
C616   C     0.49785   0.30552   0.30328   0.00000  Uiso   1.00
C617   C     0.47785   0.29097   0.34301   0.00000  Uiso   1.00
C618   C     0.46997   0.25561   0.35886   0.00000  Uiso   1.00
C619   C     0.50721   0.21198   0.44938   0.00000  Uiso   1.00
C620   C     0.51878   0.20291   0.50382   0.00000  Uiso   1.00
C621   C     0.51173   0.16830   0.52644   0.00000  Uiso   1.00
C622   C     0.49319   0.14294   0.49207   0.00000  Uiso   1.00
C623   C     0.48123   0.15208   0.43798   0.00000  Uiso   1.00
C624   C     0.48740   0.18682   0.41579   0.00000  Uiso   1.00
H625   H     0.47993   0.09625   0.17994   0.00000  Uiso   1.00
H626   H     0.57408   0.18001   0.19484   0.00000  Uiso   1.00
H627   H     0.55592   0.20235   0.10163   0.00000  Uiso   1.00
H628   H     0.46048   0.11973   0.08801   0.00000  Uiso   1.00
H629   H     0.58319   0.12789   0.35399   0.00000  Uiso   1.00
H630   H     0.65489   0.13816   0.21788   0.00000  Uiso   1.00
H631   H     0.59057   0.12441   0.19189   0.00000  Uiso   1.00
H632   H     0.47356   0.10366   0.26559   0.00000  Uiso   1.00
H633   H     0.44393   0.13431   0.30558   0.00000  Uiso   1.00
H634   H     0.54273   0.20926   0.34979   0.00000  Uiso   1.00
H635   H     0.57162   0.18068   0.30456   0.00000  Uiso   1.00
H636   H     0.35923   0.14982   0.39426   0.00000  Uiso   1.00
H637   H     0.42352   0.16903   0.42172   0.00000  Uiso   1.00
H638   H     0.43234   0.19554   0.25628   0.00000  Uiso   1.00
H639   H     0.36769   0.17696   0.22862   0.00000  Uiso   1.00
H640   H     0.50655   0.23109   0.27133   0.00000  Uiso   1.00
H641   H     0.52228   0.29292   0.24590   0.00000  Uiso   1.00
H642   H     0.46813   0.30735   0.36181   0.00000  Uiso   1.00
H643   H     0.45437   0.24511   0.38973   0.00000  Uiso   1.00
H644   H     0.51377   0.23916   0.43366   0.00000  Uiso   1.00
H645   H     0.53311   0.22343   0.52893   0.00000  Uiso   1.00
H646   H     0.48822   0.11567   0.50749   0.00000  Uiso   1.00
H647   H     0.46682   0.13179   0.41244   0.00000  Uiso   1.00
C648   C     0.16851   0.00184   0.28404   0.00000  Uiso   1.00
C649   C     0.20349   0.01672   0.27827   0.00000  Uiso   1.00
C650   C     0.21551   0.05220   0.26552   0.00000  Uiso   1.00
C651   C     0.19284   0.07392   0.25708   0.00000  Uiso   1.00
C652   C     0.15759   0.05878   0.26178   0.00000  Uiso   1.00
C653   C     0.14566   0.02340   0.27572   0.00000  Uiso   1.00
H654   H     0.22179   0.00044   0.28486   0.00000  Uiso   1.00
H655   H     0.24311   0.06269   0.26267   0.00000  Uiso   1.00
H656   H     0.13911   0.07487   0.25516   0.00000  Uiso   1.00
H657   H     0.11822   0.01245   0.27944   0.00000  Uiso   1.00
C658   C     0.16749   0.10249   0.14861   0.00000  Uiso   1.00
C659   C     0.19574   0.12281   0.18164   0.00000  Uiso   1.00
C660   C     0.21415   0.15459   0.15877   0.00000  Uiso   1.00
C661   C     0.20441   0.16582   0.10488   0.00000  Uiso   1.00
C662   C     0.17552   0.14580   0.07201   0.00000  Uiso   1.00
C663   C     0.15749   0.11381   0.09464   0.00000  Uiso   1.00
C664   C     0.20518   0.11323   0.24242   0.00000  Uiso   1.00
C665   C     0.24539   0.12599   0.26133   0.00000  Uiso   1.00
C666   C     0.26073   0.14303   0.30704   0.00000  Uiso   1.00
C667   C     0.29728   0.15446   0.32259   0.00000  Uiso   1.00
C668   C     0.31976   0.14919   0.29288   0.00000  Uiso   1.00
C669   C     0.30444   0.13205   0.24701   0.00000  Uiso   1.00
C670   C     0.26794   0.12074   0.23153   0.00000  Uiso   1.00
C671   C     0.17217   0.15893   0.24304   0.00000  Uiso   1.00
C672   C     0.15491   0.17441   0.26869   0.00000  Uiso   1.00
C673   C     0.15094   0.16284   0.32161   0.00000  Uiso   1.00
C674   C     0.16529   0.13540   0.34795   0.00000  Uiso   1.00
C675   C     0.18255   0.11992   0.32236   0.00000  Uiso   1.00
C676   C     0.18606   0.13119   0.26923   0.00000  Uiso   1.00
C677   C     0.13035   0.17970   0.34785   0.00000  Uiso   1.00
C678   C     0.01989   0.12851   0.30006   0.00000  Uiso   1.00
C679   C     0.03244   0.14343   0.34911   0.00000  Uiso   1.00
C680   C     0.06750   0.16139   0.36489   0.00000  Uiso   1.00
C681   C     0.09035   0.16347   0.33015   0.00000  Uiso   1.00
C682   C     0.07691   0.14995   0.28084   0.00000  Uiso   1.00
C683   C     0.04131   0.13210   0.26442   0.00000  Uiso   1.00
C684   C     0.13962   0.21890   0.33128   0.00000  Uiso   1.00
C685   C     0.17417   0.23613   0.32491   0.00000  Uiso   1.00
C686   C     0.18374   0.27166   0.31104   0.00000  Uiso   1.00
C687   C     0.15926   0.29135   0.30458   0.00000  Uiso   1.00
C688   C     0.12499   0.27437   0.31200   0.00000  Uiso   1.00
C689   C     0.11525   0.23862   0.32475   0.00000  Uiso   1.00
C690   C     0.16733   0.19657   0.43941   0.00000  Uiso   1.00
C691   C     0.17944   0.18832   0.49387   0.00000  Uiso   1.00
C692   C     0.16648   0.15546   0.51957   0.00000  Uiso   1.00
C693   C     0.14048   0.13126   0.48933   0.00000  Uiso   1.00
C694   C     0.12831   0.13966   0.43501   0.00000  Uiso   1.00
C695   C     0.14170   0.17242   0.40894   0.00000  Uiso   1.00
H696   H     0.15263   0.07763   0.16481   0.00000  Uiso   1.00
H697   H     0.23631   0.17099   0.18348   0.00000  Uiso   1.00
H698   H     0.21952   0.19043   0.08828   0.00000  Uiso   1.00
H699   H     0.13480   0.09776   0.07027   0.00000  Uiso   1.00
H700   H     0.24434   0.14805   0.33107   0.00000  Uiso   1.00
H701   H     0.30830   0.16822   0.35788   0.00000  Uiso   1.00
H702   H     0.32118   0.12718   0.22336   0.00000  Uiso   1.00
H703   H     0.25682   0.10801   0.19523   0.00000  Uiso   1.00
H704   H     0.17436   0.16894   0.20189   0.00000  Uiso   1.00
H705   H     0.14463   0.19604   0.24679   0.00000  Uiso   1.00
H706   H     0.16343   0.12551   0.38923   0.00000  Uiso   1.00
H707   H     0.19313   0.09845   0.34425   0.00000  Uiso   1.00
H708   H    -0.01530   0.15301   0.42325   0.00000  Uiso   1.00
H709   H     0.07725   0.17243   0.40274   0.00000  Uiso   1.00
H710   H     0.09461   0.15209   0.25398   0.00000  Uiso   1.00
H711   H     0.03244   0.12145   0.22622   0.00000  Uiso   1.00
H712   H     0.19399   0.22163   0.33072   0.00000  Uiso   1.00
H713   H     0.21071   0.28434   0.30626   0.00000  Uiso   1.00
H714   H     0.10549   0.28916   0.30708   0.00000  Uiso   1.00
H715   H     0.08827   0.22618   0.32965   0.00000  Uiso   1.00
H716   H     0.17842   0.22229   0.42096   0.00000  Uiso   1.00
H717   H     0.19981   0.20758   0.51628   0.00000  Uiso   1.00
H718   H     0.12945   0.10570   0.50847   0.00000  Uiso   1.00
H719   H     0.10807   0.12030   0.41262   0.00000  Uiso   1.00
C720   C     0.50911   0.34332   0.28950   0.00000  Uiso   1.00
C721   C     0.51689   0.35789   0.23917   0.00000  Uiso   1.00
C722   C     0.52852   0.39349   0.22725   0.00000  Uiso   1.00
C723   C     0.53162   0.41578   0.26463   0.00000  Uiso   1.00
C724   C     0.52465   0.40132   0.31530   0.00000  Uiso   1.00
C725   C     0.51373   0.36577   0.32763   0.00000  Uiso   1.00
H726   H     0.51366   0.34142   0.20841   0.00000  Uiso   1.00
H727   H     0.53499   0.40385   0.18817   0.00000  Uiso   1.00
H728   H     0.52779   0.41800   0.34575   0.00000  Uiso   1.00
H729   H     0.50918   0.35548   0.36776   0.00000  Uiso   1.00
C730   C     0.50181   0.45325   0.16295   0.00000  Uiso   1.00
C731   C     0.53426   0.46881   0.19414   0.00000  Uiso   1.00
C732   C     0.55466   0.49936   0.17144   0.00000  Uiso   1.00
C733   C     0.54444   0.51222   0.11827   0.00000  Uiso   1.00
C734   C     0.51265   0.49581   0.08614   0.00000  Uiso   1.00
C735   C     0.49112   0.46656   0.11030   0.00000  Uiso   1.00
C736   C     0.54492   0.45506   0.25311   0.00000  Uiso   1.00
C737   C     0.58503   0.46162   0.27306   0.00000  Uiso   1.00
C738   C     0.60035   0.46416   0.32733   0.00000  Uiso   1.00
C739   C     0.63678   0.47059   0.34530   0.00000  Uiso   1.00
C740   C     0.65920   0.47401   0.30975   0.00000  Uiso   1.00
C741   C     0.64360   0.46876   0.25624   0.00000  Uiso   1.00
C742   C     0.60715   0.46236   0.23840   0.00000  Uiso   1.00
C743   C     0.49039   0.46122   0.27812   0.00000  Uiso   1.00
C744   C     0.47210   0.47803   0.29961   0.00000  Uiso   1.00
C745   C     0.49007   0.50705   0.32626   0.00000  Uiso   1.00
C746   C     0.52680   0.51857   0.33083   0.00000  Uiso   1.00
C747   C     0.54479   0.50280   0.30693   0.00000  Uiso   1.00
C748   C     0.52693   0.47329   0.28130   0.00000  Uiso   1.00
C749   C     0.47161   0.52555   0.35319   0.00000  Uiso   1.00
C750   C     0.35705   0.48290   0.31341   0.00000  Uiso   1.00
C751   C     0.37609   0.47600   0.36526   0.00000  Uiso   1.00
C752   C     0.41245   0.48976   0.37890   0.00000  Uiso   1.00
C753   C     0.43132   0.51048   0.34108   0.00000  Uiso   1.00
C754   C     0.41231   0.51768   0.28926   0.00000  Uiso   1.00
C755   C     0.37595   0.50436   0.27576   0.00000  Uiso   1.00
C756   C     0.47849   0.56415   0.33233   0.00000  Uiso   1.00
C757   C     0.49836   0.57913   0.29288   0.00000  Uiso   1.00
C758   C     0.50620   0.61455   0.27759   0.00000  Uiso   1.00
C759   C     0.49365   0.63642   0.30013   0.00000  Uiso   1.00
C760   C     0.47122   0.62105   0.33641   0.00000  Uiso   1.00
C761   C     0.46373   0.58562   0.35204   0.00000  Uiso   1.00
C762   C     0.50067   0.54451   0.44799   0.00000  Uiso   1.00
C763   C     0.51256   0.53602   0.50253   0.00000  Uiso   1.00
C764   C     0.51142   0.50171   0.52416   0.00000  Uiso   1.00
C765   C     0.49907   0.47619   0.48900   0.00000  Uiso   1.00
C766   C     0.48712   0.48471   0.43474   0.00000  Uiso   1.00
C767   C     0.48690   0.51893   0.41337   0.00000  Uiso   1.00
H768   H     0.48433   0.43031   0.17965   0.00000  Uiso   1.00
H769   H     0.57917   0.51330   0.19524   0.00000  Uiso   1.00
H770   H     0.56190   0.53526   0.10175   0.00000  Uiso   1.00
H771   H     0.46541   0.45379   0.08807   0.00000  Uiso   1.00
H772   H     0.58382   0.46139   0.35625   0.00000  Uiso   1.00
H773   H     0.64788   0.47371   0.38741   0.00000  Uiso   1.00
H774   H     0.66005   0.46944   0.22810   0.00000  Uiso   1.00
H775   H     0.59596   0.45813   0.19669   0.00000  Uiso   1.00
H776   H     0.47567   0.43829   0.25846   0.00000  Uiso   1.00
H777   H     0.44364   0.46800   0.29564   0.00000  Uiso   1.00
H778   H     0.54166   0.54041   0.35305   0.00000  Uiso   1.00
H779   H     0.57299   0.51373   0.30891   0.00000  Uiso   1.00
H780   H     0.36263   0.45933   0.39570   0.00000  Uiso   1.00
H781   H     0.42588   0.48389   0.41986   0.00000  Uiso   1.00
H782   H     0.42618   0.53407   0.25902   0.00000  Uiso   1.00
H783   H     0.36211   0.51116   0.23540   0.00000  Uiso   1.00
H784   H     0.50842   0.56341   0.27346   0.00000  Uiso   1.00
H785   H     0.52305   0.62516   0.24842   0.00000  Uiso   1.00
H786   H     0.45933   0.63686   0.35270   0.00000  Uiso   1.00
H787   H     0.44606   0.57448   0.38000   0.00000  Uiso   1.00
H788   H     0.50220   0.57153   0.43306   0.00000  Uiso   1.00
H789   H     0.52219   0.55652   0.52861   0.00000  Uiso   1.00
H790   H     0.49899   0.44941   0.50405   0.00000  Uiso   1.00
H791   H     0.47767   0.46432   0.40846   0.00000  Uiso   1.00
C792   C     0.17007   0.32935   0.29098   0.00000  Uiso   1.00
C793   C     0.18716   0.34381   0.24809   0.00000  Uiso   1.00
C794   C     0.19717   0.37946   0.23533   0.00000  Uiso   1.00
C795   C     0.19069   0.40177   0.26522   0.00000  Uiso   1.00
C796   C     0.17506   0.38729   0.30947   0.00000  Uiso   1.00
C797   C     0.16434   0.35160   0.32166   0.00000  Uiso   1.00
H798   H     0.19226   0.32699   0.22402   0.00000  Uiso   1.00
H799   H     0.21030   0.39005   0.20168   0.00000  Uiso   1.00
H800   H     0.17100   0.40381   0.33504   0.00000  Uiso   1.00
H801   H     0.15195   0.34097   0.35605   0.00000  Uiso   1.00
C802   C     0.16381   0.43294   0.15723   0.00000  Uiso   1.00
C803   C     0.19152   0.45296   0.19149   0.00000  Uiso   1.00
C804   C     0.20748   0.48660   0.17131   0.00000  Uiso   1.00
C805   C     0.19764   0.49899   0.11792   0.00000  Uiso   1.00
C806   C     0.17083   0.47839   0.08283   0.00000  Uiso   1.00
C807   C     0.15371   0.44541   0.10376   0.00000  Uiso   1.00
C808   C     0.20312   0.44097   0.25113   0.00000  Uiso   1.00
C809   C     0.24354   0.44931   0.26800   0.00000  Uiso   1.00
C810   C     0.26020   0.45121   0.32193   0.00000  Uiso   1.00
C811   C     0.29686   0.46146   0.33693   0.00000  Uiso   1.00
C812   C     0.31829   0.46903   0.29874   0.00000  Uiso   1.00
C813   C     0.30154   0.46359   0.24564   0.00000  Uiso   1.00
C814   C     0.26489   0.45394   0.23060   0.00000  Uiso   1.00
C815   C     0.14949   0.45147   0.27322   0.00000  Uiso   1.00
C816   C     0.13253   0.46973   0.29459   0.00000  Uiso   1.00
C817   C     0.15180   0.49862   0.32098   0.00000  Uiso   1.00
C818   C     0.18859   0.50802   0.32639   0.00000  Uiso   1.00
C819   C     0.20549   0.49007   0.30429   0.00000  Uiso   1.00
C820   C     0.18628   0.46101   0.27825   0.00000  Uiso   1.00
C821   C     0.13455   0.51896   0.34669   0.00000  Uiso   1.00
C822   C     0.02102   0.49548   0.28378   0.00000  Uiso   1.00
C823   C     0.03310   0.49525   0.34333   0.00000  Uiso   1.00
C824   C     0.07161   0.49926   0.36375   0.00000  Uiso   1.00
C825   C     0.09407   0.50968   0.32859   0.00000  Uiso   1.00
C826   C     0.08085   0.51394   0.27192   0.00000  Uiso   1.00
C827   C     0.04486   0.50273   0.25026   0.00000  Uiso   1.00
C828   C     0.14543   0.55802   0.32985   0.00000  Uiso   1.00
C829   C     0.16454   0.57279   0.28948   0.00000  Uiso   1.00
C830   C     0.17414   0.60846   0.27645   0.00000  Uiso   1.00
C831   C     0.16414   0.63062   0.30226   0.00000  Uiso   1.00
C832   C     0.14320   0.61557   0.34067   0.00000  Uiso   1.00
C833   C     0.13410   0.58000   0.35417   0.00000  Uiso   1.00
C834   C     0.17185   0.53380   0.43914   0.00000  Uiso   1.00
C835   C     0.18328   0.52460   0.49351   0.00000  Uiso   1.00
C836   C     0.17072   0.49106   0.51753   0.00000  Uiso   1.00
C837   C     0.14722   0.46667   0.48481   0.00000  Uiso   1.00
C838   C     0.13587   0.47593   0.43046   0.00000  Uiso   1.00
C839   C     0.14716   0.50994   0.40702   0.00000  Uiso   1.00
H840   H     0.14982   0.40721   0.17194   0.00000  Uiso   1.00
H841   H     0.22822   0.50327   0.19764   0.00000  Uiso   1.00
H842   H     0.21143   0.52483   0.10328   0.00000  Uiso   1.00
H843   H     0.13192   0.42918   0.07824   0.00000  Uiso   1.00
H844   H     0.24442   0.44528   0.35267   0.00000  Uiso   1.00
H845   H     0.30872   0.46435   0.37889   0.00000  Uiso   1.00
H846   H     0.31719   0.46704   0.21528   0.00000  Uiso   1.00
H847   H     0.25298   0.45051   0.18882   0.00000  Uiso   1.00
H848   H     0.13362   0.42943   0.25208   0.00000  Uiso   1.00
H849   H     0.10393   0.46115   0.29019   0.00000  Uiso   1.00
H850   H     0.20450   0.52982   0.34804   0.00000  Uiso   1.00
H851   H     0.23398   0.49919   0.30781   0.00000  Uiso   1.00
H852   H     0.02592   0.51571   0.35825   0.00000  Uiso   1.00
H853   H     0.08098   0.49604   0.40690   0.00000  Uiso   1.00
H854   H     0.09964   0.52400   0.24551   0.00000  Uiso   1.00
H855   H     0.03580   0.50103   0.20739   0.00000  Uiso   1.00
H856   H     0.17250   0.55667   0.26773   0.00000  Uiso   1.00
H857   H     0.19013   0.61896   0.24611   0.00000  Uiso   1.00
H858   H     0.13358   0.63172   0.36005   0.00000  Uiso   1.00
H859   H     0.11789   0.56906   0.38418   0.00000  Uiso   1.00
H860   H     0.18248   0.56005   0.42203   0.00000  Uiso   1.00
H861   H     0.20258   0.54381   0.51734   0.00000  Uiso   1.00
H862   H     0.13724   0.44028   0.50209   0.00000  Uiso   1.00
H863   H     0.11784   0.45640   0.40591   0.00000  Uiso   1.00
C864   C     0.85116   0.33435   0.31892   0.00000  Uiso   1.00
C865   C     0.87163   0.34921   0.27998   0.00000  Uiso   1.00
C866   C     0.88294   0.38490   0.26955   0.00000  Uiso   1.00
C867   C     0.87365   0.40680   0.29683   0.00000  Uiso   1.00
C868   C     0.85440   0.39200   0.33710   0.00000  Uiso   1.00
C869   C     0.84336   0.35631   0.34796   0.00000  Uiso   1.00
H870   H     0.87928   0.33292   0.25805   0.00000  Uiso   1.00
H871   H     0.89921   0.39598   0.23965   0.00000  Uiso   1.00
H872   H     0.84776   0.40825   0.36030   0.00000  Uiso   1.00
H873   H     0.82827   0.34492   0.37928   0.00000  Uiso   1.00
C874   C     0.85084   0.43632   0.18876   0.00000  Uiso   1.00
C875   C     0.87629   0.45774   0.22388   0.00000  Uiso   1.00
C876   C     0.89039   0.49198   0.20392   0.00000  Uiso   1.00
C877   C     0.88127   0.50363   0.14995   0.00000  Uiso   1.00
C878   C     0.85687   0.48167   0.11418   0.00000  Uiso   1.00
C879   C     0.84128   0.44807   0.13491   0.00000  Uiso   1.00
C880   C     0.88677   0.44603   0.28382   0.00000  Uiso   1.00
C881   C     0.92706   0.45321   0.30358   0.00000  Uiso   1.00
C882   C     0.94010   0.44722   0.36014   0.00000  Uiso   1.00
C883   C     0.97612   0.45778   0.38226   0.00000  Uiso   1.00
C884   C     0.00022   0.46552   0.34898   0.00000  Uiso   1.00
C885   C    -0.01192   0.46602   0.28937   0.00000  Uiso   1.00
C886   C     0.94980   0.46326   0.26888   0.00000  Uiso   1.00
C887   C     0.83208   0.45987   0.29471   0.00000  Uiso   1.00
C888   C     0.81372   0.47652   0.31633   0.00000  Uiso   1.00
C889   C     0.83151   0.49876   0.35531   0.00000  Uiso   1.00
C890   C     0.86823   0.50381   0.37157   0.00000  Uiso   1.00
C891   C     0.88674   0.48796   0.34871   0.00000  Uiso   1.00
C892   C     0.86884   0.46518   0.31056   0.00000  Uiso   1.00
C893   C     0.81271   0.51760   0.38115   0.00000  Uiso   1.00
C894   C     0.69808   0.48362   0.32801   0.00000  Uiso   1.00
C895   C     0.71440   0.47214   0.37951   0.00000  Uiso   1.00
C896   C     0.75091   0.48257   0.39702   0.00000  Uiso   1.00
C897   C     0.77236   0.50487   0.36373   0.00000  Uiso   1.00
C898   C     0.75608   0.51607   0.31192   0.00000  Uiso   1.00
C899   C     0.71968   0.50568   0.29434   0.00000  Uiso   1.00
C900   C     0.82295   0.55670   0.36370   0.00000  Uiso   1.00
C901   C     0.85144   0.57291   0.33867   0.00000  Uiso   1.00
C902   C     0.86062   0.60856   0.32563   0.00000  Uiso   1.00
C903   C     0.84126   0.62937   0.33640   0.00000  Uiso   1.00
C904   C     0.81194   0.61306   0.35997   0.00000  Uiso   1.00
C905   C     0.80304   0.57745   0.37342   0.00000  Uiso   1.00
C906   C     0.83220   0.53443   0.47789   0.00000  Uiso   1.00
C907   C     0.84207   0.52574   0.53286   0.00000  Uiso   1.00
C908   C     0.84455   0.49214   0.55403   0.00000  Uiso   1.00
C909   C     0.83685   0.46753   0.51807   0.00000  Uiso   1.00
C910   C     0.82674   0.47620   0.46335   0.00000  Uiso   1.00
C911   C     0.82424   0.50985   0.44216   0.00000  Uiso   1.00
H912   H     0.83805   0.41005   0.20309   0.00000  Uiso   1.00
H913   H     0.90897   0.50977   0.23091   0.00000  Uiso   1.00
H914   H     0.89368   0.53004   0.13554   0.00000  Uiso   1.00
H915   H     0.82107   0.43076   0.10895   0.00000  Uiso   1.00
H916   H     0.92125   0.43611   0.38626   0.00000  Uiso   1.00
H917   H    -0.01501   0.45849   0.42536   0.00000  Uiso   1.00
H918   H    -0.00546   0.44528   0.27406   0.00000  Uiso   1.00
H919   H     0.94087   0.46730   0.22572   0.00000  Uiso   1.00
H920   H     0.81738   0.44237   0.26483   0.00000  Uiso   1.00
H921   H     0.78520   0.47158   0.30263   0.00000  Uiso   1.00
H922   H     0.88277   0.52027   0.40292   0.00000  Uiso   1.00
H923   H     0.91536   0.49357   0.36146   0.00000  Uiso   1.00
H924   H     0.69854   0.45455   0.40642   0.00000  Uiso   1.00
H925   H     0.76243   0.47314   0.43743   0.00000  Uiso   1.00
H926   H     0.77212   0.53352   0.28510   0.00000  Uiso   1.00
H927   H     0.70786   0.51542   0.25426   0.00000  Uiso   1.00
H928   H     0.86713   0.55802   0.32870   0.00000  Uiso   1.00
H929   H     0.88360   0.62018   0.30749   0.00000  Uiso   1.00
H930   H     0.79558   0.62822   0.36752   0.00000  Uiso   1.00
H931   H     0.77999   0.56556   0.39136   0.00000  Uiso   1.00
H932   H     0.83087   0.56091   0.46335   0.00000  Uiso   1.00
H933   H     0.84749   0.54548   0.55947   0.00000  Uiso   1.00
H934   H     0.83920   0.44133   0.53280   0.00000  Uiso   1.00
H935   H     0.82096   0.45646   0.43661   0.00000  Uiso   1.00
C936   C     0.50472   0.67430   0.28674   0.00000  Uiso   1.00
C937   C     0.51419   0.68897   0.23746   0.00000  Uiso   1.00
C938   C     0.52618   0.72456   0.22607   0.00000  Uiso   1.00
C939   C     0.52808   0.74681   0.26290   0.00000  Uiso   1.00
C940   C     0.51924   0.73226   0.31246   0.00000  Uiso   1.00
C941   C     0.50780   0.69666   0.32424   0.00000  Uiso   1.00
H942   H     0.51205   0.67255   0.20715   0.00000  Uiso   1.00
H943   H     0.53397   0.73502   0.18786   0.00000  Uiso   1.00
H944   H     0.52134   0.74883   0.34255   0.00000  Uiso   1.00
H945   H     0.50171   0.68623   0.36353   0.00000  Uiso   1.00
C946   C     0.49892   0.78384   0.16112   0.00000  Uiso   1.00
C947   C     0.53123   0.79971   0.19234   0.00000  Uiso   1.00
C948   C     0.55117   0.83068   0.16991   0.00000  Uiso   1.00
C949   C     0.54055   0.84382   0.11702   0.00000  Uiso   1.00
C950   C     0.50887   0.82717   0.08491   0.00000  Uiso   1.00
C951   C     0.48790   0.79731   0.10865   0.00000  Uiso   1.00
C952   C     0.54213   0.78601   0.25132   0.00000  Uiso   1.00
C953   C     0.58223   0.79213   0.27109   0.00000  Uiso   1.00
C954   C     0.59722   0.79365   0.32568   0.00000  Uiso   1.00
C955   C     0.63363   0.80061   0.34402   0.00000  Uiso   1.00
C956   C     0.65645   0.80548   0.30854   0.00000  Uiso   1.00
C957   C     0.64119   0.80092   0.25470   0.00000  Uiso   1.00
C958   C     0.60473   0.79415   0.23641   0.00000  Uiso   1.00
C959   C     0.48874   0.79463   0.27679   0.00000  Uiso   1.00
C960   C     0.47174   0.81237   0.29902   0.00000  Uiso   1.00
C961   C     0.49098   0.84107   0.32579   0.00000  Uiso   1.00
C962   C     0.52767   0.85135   0.32967   0.00000  Uiso   1.00
C963   C     0.54443   0.83453   0.30533   0.00000  Uiso   1.00
C964   C     0.52530   0.80529   0.27970   0.00000  Uiso   1.00
C965   C     0.47389   0.86035   0.35370   0.00000  Uiso   1.00
C966   C     0.35907   0.82112   0.31484   0.00000  Uiso   1.00
C967   C     0.37778   0.81462   0.36704   0.00000  Uiso   1.00
C968   C     0.41433   0.82722   0.38043   0.00000  Uiso   1.00
C969   C     0.43347   0.84646   0.34201   0.00000  Uiso   1.00
C970   C     0.41475   0.85341   0.28989   0.00000  Uiso   1.00
C971   C     0.37826   0.84104   0.27651   0.00000  Uiso   1.00
C972   C     0.48144   0.89904   0.33335   0.00000  Uiso   1.00
C973   C     0.50134   0.91406   0.29395   0.00000  Uiso   1.00
C974   C     0.50908   0.94952   0.27872   0.00000  Uiso   1.00
C975   C     0.49654   0.97125   0.30152   0.00000  Uiso   1.00
C976   C     0.47439   0.95589   0.33816   0.00000  Uiso   1.00
C977   C     0.46688   0.92045   0.35354   0.00000  Uiso   1.00
C978   C     0.50393   0.87877   0.44851   0.00000  Uiso   1.00
C979   C     0.51595   0.87004   0.50294   0.00000  Uiso   1.00
C980   C     0.51447   0.83562   0.52435   0.00000  Uiso   1.00
C981   C     0.50149   0.81026   0.48887   0.00000  Uiso   1.00
C982   C     0.48918   0.81899   0.43478   0.00000  Uiso   1.00
C983   C     0.48946   0.85334   0.41369   0.00000  Uiso   1.00
H984   H     0.48183   0.76054   0.17768   0.00000  Uiso   1.00
H985   H     0.57556   0.84477   0.19377   0.00000  Uiso   1.00
H986   H     0.55756   0.86725   0.10060   0.00000  Uiso   1.00
H987   H     0.46236   0.78430   0.08623   0.00000  Uiso   1.00
H988   H     0.58037   0.78984   0.35450   0.00000  Uiso   1.00
H989   H     0.64434   0.80308   0.38639   0.00000  Uiso   1.00
H990   H     0.65790   0.80259   0.22647   0.00000  Uiso   1.00
H991   H     0.59389   0.79072   0.19435   0.00000  Uiso   1.00
H992   H     0.47301   0.77207   0.25683   0.00000  Uiso   1.00
H993   H     0.44324   0.80327   0.29554   0.00000  Uiso   1.00
H994   H     0.54353   0.87290   0.35189   0.00000  Uiso   1.00
H995   H     0.57272   0.84440   0.30707   0.00000  Uiso   1.00
H996   H     0.36385   0.79910   0.39779   0.00000  Uiso   1.00
H997   H     0.42771   0.82164   0.42153   0.00000  Uiso   1.00
H998   H     0.42897   0.86876   0.25933   0.00000  Uiso   1.00
H999   H     0.36452   0.84735   0.23586   0.00000  Uiso   1.00
H1000  H     0.51138   0.89835   0.27448   0.00000  Uiso   1.00
H1001  H     0.52578   0.96030   0.24937   0.00000  Uiso   1.00
H1002  H     0.46266   0.97171   0.35472   0.00000  Uiso   1.00
H1003  H     0.44931   0.90924   0.38163   0.00000  Uiso   1.00
H1004  H     0.50586   0.90589   0.43385   0.00000  Uiso   1.00
H1005  H     0.52599   0.89051   0.52907   0.00000  Uiso   1.00
H1006  H     0.50109   0.78337   0.50348   0.00000  Uiso   1.00
H1007  H     0.47904   0.79864   0.40842   0.00000  Uiso   1.00
C1008  C     0.17512   0.66856   0.28943   0.00000  Uiso   1.00
C1009  C     0.18241   0.68365   0.23903   0.00000  Uiso   1.00
C1010  C     0.19233   0.71936   0.22701   0.00000  Uiso   1.00
C1011  C     0.19421   0.74128   0.26430   0.00000  Uiso   1.00
C1012  C     0.18839   0.72636   0.31536   0.00000  Uiso   1.00
C1013  C     0.17906   0.69068   0.32776   0.00000  Uiso   1.00
H1014  H     0.17995   0.66747   0.20823   0.00000  Uiso   1.00
H1015  H     0.19833   0.73009   0.18776   0.00000  Uiso   1.00
H1016  H     0.19109   0.74274   0.34601   0.00000  Uiso   1.00
H1017  H     0.17513   0.68003   0.36807   0.00000  Uiso   1.00
C1018  C     0.16205   0.77572   0.16122   0.00000  Uiso   1.00
C1019  C     0.19333   0.79342   0.19257   0.00000  Uiso   1.00
C1020  C     0.21227   0.82483   0.16972   0.00000  Uiso   1.00
C1021  C     0.20195   0.83668   0.11612   0.00000  Uiso   1.00
C1022  C     0.17198   0.81767   0.08371   0.00000  Uiso   1.00
C1023  C     0.15173   0.78742   0.10753   0.00000  Uiso   1.00
C1024  C     0.20522   0.78066   0.25176   0.00000  Uiso   1.00
C1025  C     0.24559   0.78957   0.26941   0.00000  Uiso   1.00
C1026  C     0.26217   0.79537   0.32231   0.00000  Uiso   1.00
C1027  C     0.29885   0.80500   0.33735   0.00000  Uiso   1.00
C1028  C     0.32020   0.80826   0.30030   0.00000  Uiso   1.00
C1029  C     0.30351   0.79944   0.24861   0.00000  Uiso   1.00
C1030  C     0.26685   0.79010   0.23357   0.00000  Uiso   1.00
C1031  C     0.15172   0.78461   0.28338   0.00000  Uiso   1.00
C1032  C     0.13379   0.80187   0.30482   0.00000  Uiso   1.00
C1033  C     0.15086   0.83388   0.32368   0.00000  Uiso   1.00
C1034  C     0.18671   0.84743   0.32216   0.00000  Uiso   1.00
C1035  C     0.20434   0.83067   0.29929   0.00000  Uiso   1.00
C1036  C     0.18726   0.79869   0.28028   0.00000  Uiso   1.00
C1037  C     0.13204   0.85310   0.34866   0.00000  Uiso   1.00
C1038  C     0.01867   0.82534   0.28475   0.00000  Uiso   1.00
C1039  C     0.03051   0.82912   0.34340   0.00000  Uiso   1.00
C1040  C     0.06906   0.83447   0.36476   0.00000  Uiso   1.00
C1041  C     0.09164   0.84220   0.32992   0.00000  Uiso   1.00
C1042  C     0.07858   0.84230   0.27336   0.00000  Uiso   1.00
C1043  C     0.04266   0.82985   0.25227   0.00000  Uiso   1.00
C1044  C     0.14102   0.89210   0.33062   0.00000  Uiso   1.00
C1045  C     0.15464   0.90592   0.28436   0.00000  Uiso   1.00
C1046  C     0.16310   0.94138   0.26922   0.00000  Uiso   1.00
C1047  C     0.15694   0.96401   0.29878   0.00000  Uiso   1.00
C1048  C     0.14077   0.95007   0.34269   0.00000  Uiso   1.00
C1049  C     0.13297   0.91461   0.35835   0.00000  Uiso   1.00
C1050  C     0.17079   0.86719   0.44063   0.00000  Uiso   1.00
C1051  C     0.18246   0.85770   0.49488   0.00000  Uiso   1.00
C1052  C     0.16888   0.82448   0.51909   0.00000  Uiso   1.00
C1053  C     0.14388   0.80075   0.48677   0.00000  Uiso   1.00
C1054  C     0.13212   0.81037   0.43268   0.00000  Uiso   1.00
C1055  C     0.14463   0.84405   0.40897   0.00000  Uiso   1.00
H1056  H     0.14550   0.75230   0.17851   0.00000  Uiso   1.00
H1057  H     0.23572   0.84017   0.19378   0.00000  Uiso   1.00
H1058  H     0.21790   0.86063   0.09908   0.00000  Uiso   1.00
H1059  H     0.12743   0.77291   0.08402   0.00000  Uiso   1.00
H1060  H     0.24644   0.79295   0.35221   0.00000  Uiso   1.00
H1061  H     0.31084   0.81081   0.37824   0.00000  Uiso   1.00
H1062  H     0.31925   0.79979   0.21964   0.00000  Uiso   1.00
H1063  H     0.25476   0.78356   0.19306   0.00000  Uiso   1.00
H1064  H     0.13752   0.75989   0.26853   0.00000  Uiso   1.00
H1065  H     0.10611   0.79013   0.30629   0.00000  Uiso   1.00
H1066  H     0.20116   0.87169   0.33836   0.00000  Uiso   1.00
H1067  H     0.23171   0.84297   0.29646   0.00000  Uiso   1.00
H1068  H     0.02272   0.85080   0.35379   0.00000  Uiso   1.00
H1069  H     0.07841   0.83450   0.40781   0.00000  Uiso   1.00
H1070  H     0.09739   0.85015   0.24687   0.00000  Uiso   1.00
H1071  H     0.03380   0.82510   0.21040   0.00000  Uiso   1.00
H1072  H     0.15920   0.88914   0.25974   0.00000  Uiso   1.00
H1073  H     0.17441   0.95157   0.23371   0.00000  Uiso   1.00
H1074  H     0.13495   0.96712   0.36554   0.00000  Uiso   1.00
H1075  H     0.12065   0.90434   0.39289   0.00000  Uiso   1.00
H1076  H     0.18239   0.89308   0.42319   0.00000  Uiso   1.00
H1077  H     0.20279   0.87637   0.51847   0.00000  Uiso   1.00
H1078  H     0.13306   0.77462   0.50422   0.00000  Uiso   1.00
H1079  H     0.11281   0.79131   0.40856   0.00000  Uiso   1.00
C1080  C     0.85175   0.66729   0.32343   0.00000  Uiso   1.00
C1081  C     0.86841   0.68232   0.28016   0.00000  Uiso   1.00
C1082  C     0.87875   0.71799   0.26856   0.00000  Uiso   1.00
C1083  C     0.87192   0.73984   0.29881   0.00000  Uiso   1.00
C1084  C     0.85604   0.72498   0.34265   0.00000  Uiso   1.00
C1085  C     0.84610   0.68927   0.35479   0.00000  Uiso   1.00
H1086  H     0.87316   0.66606   0.25485   0.00000  Uiso   1.00
H1087  H     0.89222   0.72899   0.23535   0.00000  Uiso   1.00
H1088  H     0.85130   0.74123   0.36797   0.00000  Uiso   1.00
H1089  H     0.83425   0.67851   0.38965   0.00000  Uiso   1.00
C1090  C     0.84738   0.77066   0.19130   0.00000  Uiso   1.00
C1091  C     0.87437   0.79111   0.22599   0.00000  Uiso   1.00
C1092  C     0.89035   0.82468   0.20564   0.00000  Uiso   1.00
C1093  C     0.88151   0.83642   0.15164   0.00000  Uiso   1.00
C1094  C     0.85569   0.81524   0.11624   0.00000  Uiso   1.00
C1095  C     0.83824   0.78247   0.13738   0.00000  Uiso   1.00
C1096  C     0.88454   0.77909   0.28586   0.00000  Uiso   1.00
C1097  C     0.92478   0.78631   0.30636   0.00000  Uiso   1.00
C1098  C     0.93771   0.78331   0.36322   0.00000  Uiso   1.00
C1099  C     0.97370   0.79463   0.38489   0.00000  Uiso   1.00
C1100  C    -0.00214   0.79985   0.35230   0.00000  Uiso   1.00
C1101  C    -0.01422   0.79660   0.29340   0.00000  Uiso   1.00
C1102  C     0.94752   0.79359   0.27195   0.00000  Uiso   1.00
C1103  C     0.82919   0.79009   0.30005   0.00000  Uiso   1.00
C1104  C     0.81065   0.80700   0.32090   0.00000  Uiso   1.00
C1105  C     0.82864   0.83219   0.35527   0.00000  Uiso   1.00
C1106  C     0.86566   0.83988   0.36791   0.00000  Uiso   1.00
C1107  C     0.88422   0.82378   0.34562   0.00000  Uiso   1.00
C1108  C     0.86620   0.79805   0.31218   0.00000  Uiso   1.00
C1109  C     0.80985   0.85134   0.38056   0.00000  Uiso   1.00
C1110  C     0.69528   0.81594   0.32725   0.00000  Uiso   1.00
C1111  C     0.71159   0.80549   0.37937   0.00000  Uiso   1.00
C1112  C     0.74802   0.81660   0.39723   0.00000  Uiso   1.00
C1113  C     0.76949   0.83841   0.36356   0.00000  Uiso   1.00
C1114  C     0.75324   0.84879   0.31129   0.00000  Uiso   1.00
C1115  C     0.71690   0.83787   0.29347   0.00000  Uiso   1.00
C1116  C     0.81955   0.89026   0.36178   0.00000  Uiso   1.00
C1117  C     0.84388   0.90537   0.32864   0.00000  Uiso   1.00
C1118  C     0.85338   0.94097   0.31512   0.00000  Uiso   1.00
C1119  C     0.83871   0.96266   0.33419   0.00000  Uiso   1.00
C1120  C     0.81280   0.94748   0.36491   0.00000  Uiso   1.00
C1121  C     0.80312   0.91184   0.37790   0.00000  Uiso   1.00
C1122  C     0.83325   0.86900   0.47704   0.00000  Uiso   1.00
C1123  C     0.84358   0.86031   0.53191   0.00000  Uiso   1.00
C1124  C     0.84377   0.82621   0.55339   0.00000  Uiso   1.00
C1125  C     0.83355   0.80116   0.51754   0.00000  Uiso   1.00
C1126  C     0.82284   0.80983   0.46294   0.00000  Uiso   1.00
C1127  C     0.82217   0.84392   0.44154   0.00000  Uiso   1.00
H1128  H     0.83312   0.74507   0.20603   0.00000  Uiso   1.00
H1129  H     0.91022   0.84184   0.23229   0.00000  Uiso   1.00
H1130  H     0.89532   0.86222   0.13686   0.00000  Uiso   1.00
H1131  H     0.81695   0.76591   0.11163   0.00000  Uiso   1.00
H1132  H     0.91883   0.77416   0.38958   0.00000  Uiso   1.00
H1133  H    -0.01747   0.79790   0.42734   0.00000  Uiso   1.00
H1134  H    -0.00787   0.77436   0.28217   0.00000  Uiso   1.00
H1135  H     0.93858   0.79530   0.22870   0.00000  Uiso   1.00
H1136  H     0.81443   0.77036   0.27369   0.00000  Uiso   1.00
H1137  H     0.78192   0.80006   0.31020   0.00000  Uiso   1.00
H1138  H     0.88035   0.85888   0.39554   0.00000  Uiso   1.00
H1139  H     0.91297   0.83150   0.35502   0.00000  Uiso   1.00
H1140  H     0.69583   0.78811   0.40658   0.00000  Uiso   1.00
H1141  H     0.75945   0.80797   0.43814   0.00000  Uiso   1.00
H1142  H     0.76928   0.86589   0.28417   0.00000  Uiso   1.00
H1143  H     0.70517   0.84702   0.25298   0.00000  Uiso   1.00
H1144  H     0.85600   0.88962   0.31277   0.00000  Uiso   1.00
H1145  H     0.87310   0.95195   0.29036   0.00000  Uiso   1.00
H1146  H     0.79985   0.96363   0.37841   0.00000  Uiso   1.00
H1147  H     0.78242   0.90061   0.40091   0.00000  Uiso   1.00
H1148  H     0.83410   0.89596   0.46254   0.00000  Uiso   1.00
H1149  H     0.85124   0.88058   0.55819   0.00000  Uiso   1.00
H1150  H     0.83432   0.77453   0.53220   0.00000  Uiso   1.00
H1151  H     0.81515   0.78970   0.43639   0.00000  Uiso   1.00
C1152  C     0.86009   0.00738   0.82738   0.00000  Uiso   1.00
C1153  C     0.88040   0.02198   0.78807   0.00000  Uiso   1.00
C1154  C     0.88928   0.05743   0.77360   0.00000  Uiso   1.00
C1155  C     0.87713   0.07957   0.79631   0.00000  Uiso   1.00
C1156  C     0.85727   0.06519   0.83586   0.00000  Uiso   1.00
C1157  C     0.84913   0.02976   0.85140   0.00000  Uiso   1.00
H1158  H     0.88939   0.00563   0.76815   0.00000  Uiso   1.00
H1159  H     0.90597   0.06810   0.74417   0.00000  Uiso   1.00
H1160  H     0.84815   0.08152   0.85559   0.00000  Uiso   1.00
H1161  H     0.83435   0.01974   0.88330   0.00000  Uiso   1.00
C1162  C     0.85596   0.10336   0.68519   0.00000  Uiso   1.00
C1163  C     0.87597   0.12799   0.71968   0.00000  Uiso   1.00
C1164  C     0.88343   0.16281   0.69800   0.00000  Uiso   1.00
C1165  C     0.87265   0.17240   0.64357   0.00000  Uiso   1.00
C1166  C     0.85374   0.14748   0.60863   0.00000  Uiso   1.00
C1167  C     0.84533   0.11284   0.63072   0.00000  Uiso   1.00
C1168  C     0.88867   0.11864   0.77992   0.00000  Uiso   1.00
C1169  C     0.92928   0.12692   0.79674   0.00000  Uiso   1.00
C1170  C     0.94285   0.11582   0.85157   0.00000  Uiso   1.00
C1171  C     0.97893   0.12469   0.87340   0.00000  Uiso   1.00
C1172  C     1.00237   0.13690   0.83903   0.00000  Uiso   1.00
C1173  C     0.98990   0.14480   0.77985   0.00000  Uiso   1.00
C1174  C     0.95148   0.14263   0.76220   0.00000  Uiso   1.00
C1175  C     0.83576   0.13416   0.79476   0.00000  Uiso   1.00
C1176  C     0.81893   0.15024   0.82019   0.00000  Uiso   1.00
C1177  C     0.83818   0.17085   0.86080   0.00000  Uiso   1.00
C1178  C     0.87469   0.17412   0.87574   0.00000  Uiso   1.00
C1179  C     0.89160   0.15839   0.84982   0.00000  Uiso   1.00
C1180  C     0.87236   0.13800   0.80897   0.00000  Uiso   1.00
C1181  C     0.82148   0.19032   0.88916   0.00000  Uiso   1.00
C1182  C     0.70705   0.16908   0.83338   0.00000  Uiso   1.00
C1183  C     0.72125   0.15903   0.88677   0.00000  Uiso   1.00
C1184  C     0.75769   0.16505   0.90530   0.00000  Uiso   1.00
C1185  C     0.78100   0.18142   0.87110   0.00000  Uiso   1.00
C1186  C     0.76672   0.19210   0.81782   0.00000  Uiso   1.00
C1187  C     0.73042   0.18579   0.79907   0.00000  Uiso   1.00
C1188  C     0.83359   0.22956   0.87397   0.00000  Uiso   1.00
C1189  C     0.86082   0.24532   0.84625   0.00000  Uiso   1.00
C1190  C     0.86978   0.28092   0.83244   0.00000  Uiso   1.00
C1191  C     0.85127   0.30207   0.84461   0.00000  Uiso   1.00
C1192  C     0.82375   0.28614   0.87225   0.00000  Uiso   1.00
C1193  C     0.81537   0.25072   0.88700   0.00000  Uiso   1.00
C1194  C     0.85001   0.20503   0.98557   0.00000  Uiso   1.00
C1195  C     0.85952   0.19490   0.04018   0.00000  Uiso   1.00
C1196  C     0.85193   0.15994   0.06061   0.00000  Uiso   1.00
C1197  C     0.83537   0.13532   0.02442   0.00000  Uiso   1.00
C1198  C     0.82634   0.14548   0.96986   0.00000  Uiso   1.00
C1199  C     0.83289   0.18057   0.94961   0.00000  Uiso   1.00
H1200  H     0.84824   0.07617   0.70030   0.00000  Uiso   1.00
H1201  H     0.89771   0.18280   0.72417   0.00000  Uiso   1.00
H1202  H     0.87869   0.19970   0.62831   0.00000  Uiso   1.00
H1203  H     0.83062   0.09267   0.60514   0.00000  Uiso   1.00
H1204  H     0.92431   0.10197   0.87716   0.00000  Uiso   1.00
H1205  H     0.98839   0.12085   0.91658   0.00000  Uiso   1.00
H1206  H     0.99606   0.12759   0.75669   0.00000  Uiso   1.00
H1207  H     0.94193   0.15140   0.72056   0.00000  Uiso   1.00
H1208  H     0.81999   0.11823   0.76329   0.00000  Uiso   1.00
H1209  H     0.79041   0.14615   0.80796   0.00000  Uiso   1.00
H1210  H     0.89034   0.18914   0.90834   0.00000  Uiso   1.00
H1211  H     0.92012   0.16230   0.86214   0.00000  Uiso   1.00
H1212  H     0.70370   0.14594   0.91425   0.00000  Uiso   1.00
H1213  H     0.76761   0.15691   0.94713   0.00000  Uiso   1.00
H1214  H     0.78434   0.20591   0.79075   0.00000  Uiso   1.00
H1215  H     0.72014   0.19453   0.75763   0.00000  Uiso   1.00
H1216  H     0.87551   0.23010   0.83460   0.00000  Uiso   1.00
H1217  H     0.89173   0.29212   0.81192   0.00000  Uiso   1.00
H1218  H     0.80819   0.30137   0.88179   0.00000  Uiso   1.00
H1219  H     0.79385   0.23920   0.90835   0.00000  Uiso   1.00
H1220  H     0.85613   0.23248   0.97138   0.00000  Uiso   1.00
H1221  H     0.87245   0.21461   0.06727   0.00000  Uiso   1.00
H1222  H     0.82990   0.10789   0.03900   0.00000  Uiso   1.00
H1223  H     0.81398   0.12583   0.94252   0.00000  Uiso   1.00
C1224  C     0.85070   1.00059   0.32233   0.00000  Uiso   1.00
C1225  C     0.85769   0.01569   0.27189   0.00000  Uiso   1.00
C1226  C     0.86894   0.05140   0.26088   0.00000  Uiso   1.00
C1227  C     0.87320   0.07306   0.29974   0.00000  Uiso   1.00
C1228  C     0.86800   0.05784   0.35103   0.00000  Uiso   1.00
C1229  C     0.85651   0.02220   0.36205   0.00000  Uiso   1.00
H1230  H     0.85378   0.99948   0.24047   0.00000  Uiso   1.00
H1231  H     0.87421   0.06226   0.22129   0.00000  Uiso   1.00
H1232  H     0.87284   0.07402   0.38282   0.00000  Uiso   1.00
H1233  H     0.85252   0.01102   0.40217   0.00000  Uiso   1.00
C1234  C     0.84473   0.11188   0.19793   0.00000  Uiso   1.00
C1235  C     0.87798   0.12553   0.22909   0.00000  Uiso   1.00
C1236  C     0.90169   0.15246   0.20493   0.00000  Uiso   1.00
C1237  C     0.89326   0.16398   0.15063   0.00000  Uiso   1.00
C1238  C     0.86081   0.14893   0.11885   0.00000  Uiso   1.00
C1239  C     0.83643   0.12300   0.14363   0.00000  Uiso   1.00
C1240  C     0.88605   0.11250   0.28892   0.00000  Uiso   1.00
C1241  C     0.92582   0.11896   0.31353   0.00000  Uiso   1.00
C1242  C     0.93880   0.12905   0.36655   0.00000  Uiso   1.00
C1243  C     0.97519   0.13870   0.38846   0.00000  Uiso   1.00
C1244  C    -0.00228   0.13089   0.36284   0.00000  Uiso   1.00
C1245  C     0.98398   0.10994   0.31513   0.00000  Uiso   1.00
C1246  C     0.94761   0.11180   0.28601   0.00000  Uiso   1.00
C1247  C     0.83273   0.11494   0.32384   0.00000  Uiso   1.00
C1248  C     0.81475   0.13232   0.34489   0.00000  Uiso   1.00
C1249  C     0.82944   0.16677   0.35479   0.00000  Uiso   1.00
C1250  C     0.86335   0.18283   0.34503   0.00000  Uiso   1.00
C1251  C     0.88136   0.16542   0.32405   0.00000  Uiso   1.00
C1252  C     0.86655   0.13101   0.31386   0.00000  Uiso   1.00
C1253  C     0.80946   0.18536   0.37880   0.00000  Uiso   1.00
C1254  C     0.69552   0.15467   0.31815   0.00000  Uiso   1.00
C1255  C     0.70942   0.16544   0.36946   0.00000  Uiso   1.00
C1256  C     0.74565   0.17556   0.38874   0.00000  Uiso   1.00
C1257  C     0.76940   0.17448   0.35782   0.00000  Uiso   1.00
C1258  C     0.75564   0.16563   0.30557   0.00000  Uiso   1.00
C1259  C     0.71937   0.15566   0.28608   0.00000  Uiso   1.00
C1260  C     0.81909   0.22443   0.36228   0.00000  Uiso   1.00
C1261  C     0.82518   0.23774   0.31082   0.00000  Uiso   1.00
C1262  C     0.83491   0.27309   0.29548   0.00000  Uiso   1.00
C1263  C     0.83859   0.29674   0.33165   0.00000  Uiso   1.00
C1264  C     0.82945   0.28242   0.38038   0.00000  Uiso   1.00
C1265  C     0.81968   0.24788   0.39694   0.00000  Uiso   1.00
C1266  C     0.85243   0.19425   0.46827   0.00000  Uiso   1.00
C1267  C     0.86323   0.18523   0.52285   0.00000  Uiso   1.00
C1268  C     0.84265   0.15707   0.55045   0.00000  Uiso   1.00
C1269  C     0.81145   0.13773   0.52084   0.00000  Uiso   1.00
C1270  C     0.80085   0.14665   0.46619   0.00000  Uiso   1.00
C1271  C     0.82052   0.17575   0.43927   0.00000  Uiso   1.00
H1272  H     0.82504   0.09208   0.21622   0.00000  Uiso   1.00
H1273  H     0.92723   0.16461   0.22839   0.00000  Uiso   1.00
H1274  H     0.91254   0.18451   0.13267   0.00000  Uiso   1.00
H1275  H     0.81049   0.11171   0.12034   0.00000  Uiso   1.00
H1276  H     0.92037   0.13256   0.38840   0.00000  Uiso   1.00
H1277  H    -0.01643   0.08231   0.32688   0.00000  Uiso   1.00
H1278  H     0.93806   0.10364   0.24605   0.00000  Uiso   1.00
H1279  H     0.81991   0.08846   0.31538   0.00000  Uiso   1.00
H1280  H     0.78881   0.11870   0.35327   0.00000  Uiso   1.00
H1281  H     0.87603   0.20935   0.35343   0.00000  Uiso   1.00
H1282  H     0.90734   0.17895   0.31562   0.00000  Uiso   1.00
H1283  H     0.69110   0.16565   0.39423   0.00000  Uiso   1.00
H1284  H     0.75547   0.18416   0.42844   0.00000  Uiso   1.00
H1285  H     0.77338   0.16619   0.27949   0.00000  Uiso   1.00
H1286  H     0.70989   0.14838   0.24556   0.00000  Uiso   1.00
H1287  H     0.82267   0.22015   0.28199   0.00000  Uiso   1.00
H1288  H     0.83969   0.28249   0.25522   0.00000  Uiso   1.00
H1289  H     0.81286   0.23846   0.43599   0.00000  Uiso   1.00
H1290  H     0.86922   0.21609   0.44809   0.00000  Uiso   1.00
H1291  H     0.88828   0.20011   0.54400   0.00000  Uiso   1.00
H1292  H     0.79481   0.11556   0.54065   0.00000  Uiso   1.00
H1293  H     0.77674   0.13065   0.44458   0.00000  Uiso   1.00
loop_
_geom_bond_atom_site_label_1
_geom_bond_atom_site_label_2
_geom_bond_distance
_geom_bond_site_symmetry_2
_ccdc_geom_bond_type
C1     C2      1.396   .     A
C1     C6      1.398   .     A
C1     C400    1.476   1_545 S
C2     C3      1.385   .     A
C2     H7      1.084   .     S
C3     C4      1.394   .     A
C3     H8      1.083   .     S
C4     C5      1.397   .     A
C4     C17     1.540   .     S
C5     C6      1.387   .     A
C5     H9      1.084   .     S
C6     H10     1.084   .     S
C11    C12     1.392   .     A
C11    C16     1.386   .     A
C11    H49     1.084   .     S
C12    C13     1.397   .     A
C12    C17     1.531   .     S
C13    C14     1.384   .     A
C13    H50     1.084   .     S
C14    C15     1.398   .     A
C14    H51     1.084   .     S
C15    C16     1.397   .     A
C15    C621    1.473   .     S
C16    H52     1.084   .     S
C17    C18     1.534   .     S
C17    C29     1.534   .     S
C18    C19     1.392   .     A
C18    C23     1.399   .     A
C19    C20     1.387   .     A
C19    H53     1.083   .     S
C20    C21     1.394   .     A
C20    H54     1.085   .     S
C21    C22     1.395   .     A
C21    C1182   1.473   .     S
C22    C23     1.384   .     A
C22    H55     1.084   .     S
C23    H56     1.084   .     S
C24    C25     1.387   .     A
C24    C29     1.394   .     A
C24    H57     1.083   .     S
C25    C26     1.395   .     A
C25    H58     1.085   .     S
C26    C27     1.393   .     A
C26    C30     1.535   .     S
C27    C28     1.387   .     A
C27    H59     1.083   .     S
C28    C29     1.395   .     A
C28    H60     1.085   .     S
C30    C34     1.532   .     S
C30    C37     1.533   .     S
C30    C48     1.532   .     S
C31    C32     1.397   .     A
C31    C36     1.394   .     A
C31    C93     1.473   .     S
C32    C33     1.381   .     A
C32    H61     1.084   .     S
C33    C34     1.399   .     A
C33    H62     1.085   .     S
C34    C35     1.390   .     A
C35    C36     1.389   .     A
C35    H63     1.084   .     S
C36    H64     1.085   .     S
C37    C38     1.397   .     A
C37    C42     1.393   .     A
C38    C39     1.386   .     A
C38    H65     1.085   .     S
C39    C40     1.399   .     A
C39    H66     1.084   .     S
C40    C41     1.396   .     A
C40    C145    1.476   .     S
C41    C42     1.386   .     A
C41    H67     1.084   .     S
C42    H68     1.083   .     S
C43    C44     1.388   1_556 A
C43    C48     1.391   .     A
C43    H69     1.083   .     S
C44    C43     1.388   1_554 A
C44    C45     1.396   .     A
C44    H70     1.084   .     S
C45    C46     1.399   .     A
C45    C591    1.473   .     S
C46    C47     1.382   1_554 A
C46    H71     1.084   .     S
C47    C46     1.382   1_556 A
C47    C48     1.399   .     A
C47    H72     1.085   .     S
C73    C74     1.393   .     A
C73    C78     1.394   .     A
C73    C472    1.482   1_545 S
C74    C75     1.387   .     A
C74    H79     1.085   .     S
C75    C76     1.396   .     A
C75    H80     1.084   .     S
C76    C77     1.395   .     A
C76    C89     1.530   .     S
C77    C78     1.387   .     A
C77    H81     1.084   .     S
C78    H82     1.085   .     S
C83    C84     1.392   .     A
C83    C88     1.387   .     A
C83    H121    1.084   .     S
C84    C85     1.396   .     A
C84    C89     1.530   .     S
C85    C86     1.382   .     A
C85    H122    1.084   .     S
C86    C87     1.395   .     A
C86    H123    1.084   .     S
C87    C88     1.395   .     A
C87    C692    1.471   .     S
C88    H124    1.085   .     S
C89    C90     1.529   .     S
C89    C101    1.531   .     S
C90    C91     1.394   .     A
C90    C95     1.396   .     A
C91    C92     1.385   .     A
C91    H125    1.084   .     S
C92    C93     1.396   .     A
C92    H126    1.085   .     S
C93    C94     1.395   .     A
C94    C95     1.385   .     A
C94    H127    1.084   .     S
C95    H128    1.084   .     S
C96    C97     1.386   .     A
C96    C101    1.394   .     A
C96    H129    1.084   .     S
C97    C98     1.391   .     A
C97    H130    1.083   .     S
C98    C99     1.398   .     A
C98    C102    1.533   .     S
C99    C100    1.387   .     A
C99    H131    1.084   .     S
C100   C101    1.392   .     A
C100   H132    1.084   .     S
C102   C106    1.534   .     S
C102   C109    1.533   .     S
C102   C120    1.529   .     S
C103   C104    1.493   .     S
C103   C108    1.377   .     A
C103   C1173   1.530   1_455 S
C104   C105    1.474   .     S
C104   H133    1.103   .     S
C104   C1172   1.521   1_455 S
C105   C106    1.362   .     A
C105   H134    1.082   .     S
C106   C107    1.428   .     A
C107   C108    1.393   .     A
C107   H135    1.084   .     S
C108   H136    1.085   .     S
C109   C110    1.391   .     A
C109   C114    1.399   .     A
C110   C111    1.390   .     A
C110   H137    1.084   .     S
C111   C112    1.394   .     A
C111   H138    1.085   .     S
C112   C113    1.394   .     A
C112   C217    1.482   .     S
C113   C114    1.384   .     A
C113   H139    1.085   .     S
C114   H140    1.084   .     S
C115   C116    1.386   .     A
C115   C120    1.389   .     A
C115   H141    1.084   .     S
C116   C117    1.395   1_556 A
C116   H142    1.084   1_556 S
C117   C116    1.395   1_554 A
C117   C118    1.397   1_554 A
C117   C662    1.470   .     S
C118   C117    1.397   1_556 A
C118   C119    1.381   .     A
C118   H143    1.084   1_556 S
C119   C120    1.398   .     A
C119   H144    1.085   .     S
H142   C116    1.084   1_554 S
H143   C118    1.084   1_554 S
C145   C146    1.396   .     A
C145   C150    1.398   .     A
C146   C147    1.385   .     A
C146   H151    1.084   .     S
C147   C148    1.394   .     A
C147   H152    1.083   .     S
C148   C149    1.397   .     A
C148   C161    1.539   .     S
C149   C150    1.387   .     A
C149   H153    1.084   .     S
C150   H154    1.084   .     S
C155   C156    1.391   .     A
C155   C160    1.386   .     A
C155   H193    1.084   .     S
C156   C157    1.398   .     A
C156   C161    1.529   .     S
C157   C158    1.383   .     A
C157   H194    1.084   .     S
C158   C159    1.396   .     A
C158   H195    1.084   .     S
C159   C160    1.396   .     A
C159   C764    1.472   .     S
C160   H196    1.084   .     S
C161   C162    1.533   .     S
C161   C173    1.534   .     S
C162   C163    1.392   .     A
C162   C167    1.399   .     A
C163   C164    1.387   .     A
C163   H197    1.083   .     S
C164   C165    1.394   .     A
C164   H198    1.085   .     S
C165   C166    1.395   .     A
C165   C319    1.473   .     S
C166   C167    1.383   .     A
C166   H199    1.084   .     S
C167   H200    1.084   .     S
C168   C169    1.387   .     A
C168   C173    1.394   .     A
C168   H201    1.083   .     S
C169   C170    1.395   .     A
C169   H202    1.085   .     S
C170   C171    1.393   .     A
C170   C174    1.536   .     S
C171   C172    1.387   .     A
C171   H203    1.083   .     S
C172   C173    1.394   .     A
C172   H204    1.084   .     S
C174   C178    1.535   .     S
C174   C181    1.536   .     S
C174   C192    1.529   .     S
C175   C176    1.396   .     A
C175   C180    1.393   .     A
C175   C237    1.475   .     S
C176   C177    1.383   .     A
C176   H205    1.085   .     S
C177   C178    1.399   .     A
C177   H206    1.084   .     S
C178   C179    1.391   .     A
C179   C180    1.388   .     A
C179   H207    1.083   .     S
C180   H208    1.085   .     S
C181   C182    1.396   .     A
C181   C186    1.394   .     A
C182   C183    1.386   .     A
C182   H209    1.084   .     S
C183   C184    1.401   .     A
C183   H210    1.084   .     S
C184   C185    1.398   .     A
C184   C361    1.477   .     S
C185   C186    1.385   .     A
C185   H211    1.084   .     S
C186   H212    1.083   .     S
C187   C188    1.388   1_556 A
C187   C192    1.390   .     A
C187   H213    1.084   .     S
C188   C187    1.388   1_554 A
C188   C189    1.397   .     A
C188   H214    1.084   .     S
C189   C190    1.400   .     A
C189   C734    1.473   .     S
C190   C191    1.381   1_554 A
C190   H215    1.084   .     S
C191   C190    1.381   1_556 A
C191   C192    1.398   .     A
C191   H216    1.085   .     S
C217   C218    1.393   .     A
C217   C222    1.395   .     A
C218   C219    1.387   .     A
C218   H223    1.085   .     S
C219   C220    1.395   .     A
C219   H224    1.084   .     S
C220   C221    1.395   .     A
C220   C233    1.531   .     S
C221   C222    1.387   .     A
C221   H225    1.084   .     S
C222   H226    1.085   .     S
C227   C228    1.393   .     A
C227   C232    1.387   .     A
C227   H265    1.084   .     S
C228   C229    1.395   .     A
C228   C233    1.531   .     S
C229   C230    1.383   .     A
C229   H266    1.084   .     S
C230   C231    1.397   .     A
C230   H267    1.084   .     S
C231   C232    1.396   .     A
C231   C836    1.474   .     S
C232   H268    1.085   .     S
C233   C234    1.530   .     S
C233   C245    1.531   .     S
C234   C235    1.394   .     A
C234   C239    1.396   .     A
C235   C236    1.386   .     A
C235   H269    1.084   .     S
C236   C237    1.395   .     A
C236   H270    1.085   .     S
C237   C238    1.395   .     A
C238   C239    1.385   .     A
C238   H271    1.084   .     S
C239   H272    1.084   .     S
C240   C241    1.387   .     A
C240   C245    1.393   .     A
C240   H273    1.084   .     S
C241   C242    1.392   .     A
C241   H274    1.083   .     S
C242   C243    1.398   .     A
C242   C246    1.535   .     S
C243   C244    1.388   .     A
C243   H275    1.085   .     S
C244   C245    1.394   .     A
C244   H276    1.084   .     S
C246   C250    1.537   .     S
C246   C253    1.536   .     S
C246   C264    1.531   .     S
C247   C248    1.494   .     S
C247   C252    1.376   .     A
C247   C310    1.530   1_455 S
C248   C249    1.476   .     S
C248   H277    1.103   .     S
C248   C309    1.522   1_455 S
C249   C250    1.362   .     A
C249   H278    1.082   .     S
C250   C251    1.429   .     A
C251   C252    1.393   .     A
C251   H279    1.083   .     S
C252   H280    1.085   .     S
C253   C254    1.392   .     A
C253   C258    1.399   .     A
C254   C255    1.390   .     A
C254   H281    1.084   .     S
C255   C256    1.394   .     A
C255   H282    1.085   .     S
C256   C257    1.394   .     A
C256   C433    1.484   .     S
C257   C258    1.384   .     A
C257   H283    1.085   .     S
C258   H284    1.084   .     S
C259   C260    1.387   .     A
C259   C264    1.391   .     A
C259   H285    1.084   .     S
C260   C261    1.396   1_556 A
C260   H286    1.084   1_556 S
C261   C260    1.396   1_554 A
C261   C262    1.398   1_554 A
C261   C806    1.474   .     S
C262   C261    1.398   1_556 A
C262   C263    1.383   .     A
C262   H287    1.084   1_556 S
C263   C264    1.398   .     A
C263   H288    1.085   .     S
H286   C260    1.084   1_554 S
H287   C262    1.084   1_554 S
C289   C290    1.399   .     A
C289   C294    1.396   .     A
C289   C1191   1.470   .     S
C290   C291    1.382   .     A
C290   H295    1.084   .     S
C291   C292    1.395   .     A
C291   H296    1.085   .     S
C292   C293    1.391   .     A
C292   C305    1.527   .     S
C293   C294    1.385   .     A
C293   H297    1.084   .     S
C294   H298    1.084   .     S
C299   C300    1.393   .     A
C299   C304    1.384   .     A
C299   H337    1.083   .     S
C300   C301    1.397   .     A
C300   C305    1.527   .     S
C301   C302    1.385   .     A
C301   H338    1.085   .     S
C302   C303    1.397   .     A
C302   H339    1.084   .     S
C303   C304    1.396   .     A
C303   C908    1.473   .     S
C304   H340    1.084   .     S
C305   C306    1.534   .     S
C305   C317    1.527   .     S
C306   C307    1.429   .     A
C306   C311    1.361   .     A
C307   C308    1.387   .     A
C307   H341    1.083   .     S
C308   C309    1.380   .     A
C308   H342    1.085   .     S
C309   C248    1.522   1_655 S
C309   C310    1.494   .     S
C310   C247    1.530   1_655 S
C310   C311    1.478   .     S
C310   H343    1.102   1_655 S
C311   H344    1.082   .     S
C312   C313    1.385   .     A
C312   C317    1.395   .     A
C312   H345    1.085   .     S
C313   C314    1.391   .     A
C313   H346    1.083   .     S
C314   C315    1.396   .     A
C314   C318    1.528   .     S
C315   C316    1.387   .     A
C315   H347    1.085   .     S
C316   C317    1.390   .     A
C316   H348    1.083   .     S
C318   C322    1.530   .     S
C318   C325    1.531   .     S
C318   C336    1.529   .     S
C319   C320    1.394   .     A
C319   C324    1.396   .     A
C320   C321    1.387   .     A
C320   H349    1.085   .     S
C321   C322    1.391   .     A
C321   H350    1.083   .     S
C322   C323    1.398   .     A
C323   C324    1.383   .     A
C323   H351    1.085   .     S
C324   H352    1.084   .     S
C325   C326    1.390   .     A
C325   C330    1.398   .     A
C326   C327    1.385   .     A
C326   H353    1.083   .     S
C327   C328    1.395   .     A
C327   H354    1.084   .     S
C328   C329    1.398   .     A
C328   C505    1.470   .     S
C329   C330    1.382   .     A
C329   H355    1.084   .     S
C330   H356    1.084   .     S
C331   C332    1.387   1_556 A
C331   C336    1.391   .     A
C331   H357    1.084   .     S
C332   C331    1.387   1_554 A
C332   C333    1.396   .     A
C332   H358    1.084   .     S
C333   C334    1.398   .     A
C333   C878    1.472   .     S
C334   C335    1.382   1_554 A
C334   H359    1.084   .     S
C335   C334    1.382   1_556 A
C335   C336    1.397   .     A
C335   H360    1.085   .     S
H343   C310    1.102   1_455 S
C361   C362    1.398   .     A
C361   C366    1.401   .     A
C362   C363    1.385   .     A
C362   H367    1.084   .     S
C363   C364    1.393   .     A
C363   H368    1.083   .     S
C364   C365    1.397   .     A
C364   C377    1.536   .     S
C365   C366    1.386   .     A
C365   H369    1.085   .     S
C366   H370    1.084   .     S
C371   C372    1.391   .     A
C371   C376    1.386   .     A
C371   H409    1.083   .     S
C372   C373    1.399   .     A
C372   C377    1.531   .     S
C373   C374    1.383   .     A
C373   H410    1.085   .     S
C374   C375    1.397   .     A
C374   H411    1.084   .     S
C375   C376    1.396   .     A
C375   C980    1.472   .     S
C376   H412    1.084   .     S
C377   C378    1.532   .     S
C377   C389    1.534   .     S
C378   C379    1.391   .     A
C378   C383    1.399   .     A
C379   C380    1.387   .     A
C379   H413    1.083   .     S
C380   C381    1.393   .     A
C380   H414    1.085   .     S
C381   C382    1.395   .     A
C381   C535    1.474   .     S
C382   C383    1.383   .     A
C382   H415    1.084   .     S
C383   H416    1.084   .     S
C384   C385    1.388   .     A
C384   C389    1.393   .     A
C384   H417    1.083   .     S
C385   C386    1.395   .     A
C385   H418    1.085   .     S
C386   C387    1.393   .     A
C386   C390    1.536   .     S
C387   C388    1.387   .     A
C387   H419    1.082   .     S
C388   C389    1.394   .     A
C388   H420    1.085   .     S
C390   C394    1.533   .     S
C390   C397    1.533   .     S
C390   C408    1.532   .     S
C391   C392    1.397   .     A
C391   C396    1.394   .     A
C391   C453    1.474   .     S
C392   C393    1.382   .     A
C392   H421    1.084   .     S
C393   C394    1.398   .     A
C393   H422    1.085   .     S
C394   C395    1.391   .     A
C395   C396    1.388   .     A
C395   H423    1.084   .     S
C396   H424    1.085   .     S
C397   C398    1.397   .     A
C397   C402    1.393   .     A
C398   C399    1.386   .     A
C398   H425    1.085   .     S
C399   C400    1.399   .     A
C399   H426    1.084   .     S
C400   C1      1.476   1_565 S
C400   C401    1.396   .     A
C401   C402    1.386   .     A
C401   H427    1.084   .     S
C402   H428    1.083   .     S
C403   C404    1.388   1_556 A
C403   C408    1.391   .     A
C403   H429    1.083   .     S
C404   C403    1.388   1_554 A
C404   C405    1.397   .     A
C404   H430    1.084   .     S
C405   C406    1.399   .     A
C405   C950    1.474   .     S
C406   C407    1.382   1_554 A
C406   H431    1.084   .     S
C407   C406    1.382   1_556 A
C407   C408    1.399   .     A
C407   H432    1.085   .     S
C433   C434    1.394   .     A
C433   C438    1.395   .     A
C434   C435    1.387   .     A
C434   H439    1.085   .     S
C435   C436    1.396   .     A
C435   H440    1.084   .     S
C436   C437    1.394   .     A
C436   C449    1.532   .     S
C437   C438    1.388   .     A
C437   H441    1.084   .     S
C438   H442    1.085   .     S
C443   C444    1.393   .     A
C443   C448    1.388   .     A
C443   H481    1.084   .     S
C444   C445    1.396   .     A
C444   C449    1.533   .     S
C445   C446    1.384   .     A
C445   H482    1.084   .     S
C446   C447    1.397   .     A
C446   H483    1.085   .     S
C447   C448    1.396   .     A
C447   C1052   1.475   .     S
C448   H484    1.085   .     S
C449   C450    1.530   .     S
C449   C461    1.532   .     S
C450   C451    1.394   .     A
C450   C455    1.396   .     A
C451   C452    1.386   .     A
C451   H485    1.084   .     S
C452   C453    1.396   .     A
C452   H486    1.085   .     S
C453   C454    1.395   .     A
C454   C455    1.385   .     A
C454   H487    1.084   .     S
C455   H488    1.084   .     S
C456   C457    1.386   .     A
C456   C461    1.394   .     A
C456   H489    1.084   .     S
C457   C458    1.392   .     A
C457   H490    1.083   .     S
C458   C459    1.397   .     A
C458   C462    1.535   .     S
C459   C460    1.389   .     A
C459   H491    1.085   .     S
C460   C461    1.393   .     A
C460   H492    1.084   .     S
C462   C466    1.536   .     S
C462   C469    1.535   .     S
C462   C480    1.531   .     S
C463   C464    1.494   .     S
C463   C468    1.376   .     A
C463   C526    1.529   1_455 S
C464   C465    1.476   .     S
C464   H493    1.103   .     S
C464   C525    1.523   1_455 S
C465   C466    1.362   .     A
C465   H494    1.082   .     S
C466   C467    1.429   .     A
C467   C468    1.392   .     A
C467   H495    1.083   .     S
C468   H496    1.085   .     S
C469   C470    1.391   .     A
C469   C474    1.399   .     A
C470   C471    1.390   .     A
C470   H497    1.084   .     S
C471   C472    1.394   .     A
C471   H498    1.085   .     S
C472   C73     1.482   1_565 S
C472   C473    1.394   .     A
C473   C474    1.384   .     A
C473   H499    1.085   .     S
C474   H500    1.084   .     S
C475   C476    1.387   1_556 A
C475   C480    1.391   .     A
C475   H501    1.084   .     S
C476   C475    1.387   1_554 A
C476   C477    1.394   .     A
C476   H502    1.085   .     S
C477   C478    1.397   1_554 A
C477   C1022   1.473   .     S
C478   C477    1.397   1_556 A
C478   C479    1.383   .     A
C478   H503    1.084   1_556 S
C479   C480    1.398   .     A
C479   H504    1.085   .     S
H503   C478    1.084   1_554 S
C505   C506    1.398   .     A
C505   C510    1.396   .     A
C506   C507    1.382   .     A
C506   H511    1.084   .     S
C507   C508    1.396   .     A
C507   H512    1.085   .     S
C508   C509    1.391   .     A
C508   C521    1.527   .     S
C509   C510    1.385   .     A
C509   H513    1.083   .     S
C510   H514    1.084   .     S
C515   C516    1.393   .     A
C515   C520    1.384   .     A
C515   H553    1.083   .     S
C516   C517    1.396   .     A
C516   C521    1.527   .     S
C517   C518    1.386   .     A
C517   H554    1.085   .     S
C518   C519    1.398   .     A
C518   H555    1.084   .     S
C519   C520    1.396   .     A
C519   C1124   1.473   .     S
C520   H556    1.084   .     S
C521   C522    1.534   .     S
C521   C533    1.528   .     S
C522   C523    1.430   .     A
C522   C527    1.361   .     A
C523   C524    1.387   .     A
C523   H557    1.083   .     S
C524   C525    1.380   .     A
C524   H558    1.085   .     S
C525   C464    1.523   1_655 S
C525   C526    1.494   .     S
C526   C463    1.529   1_655 S
C526   C527    1.478   .     S
C526   H559    1.102   1_655 S
C527   H560    1.082   .     S
C528   C529    1.385   .     A
C528   C533    1.395   .     A
C528   H561    1.085   .     S
C529   C530    1.391   .     A
C529   H562    1.083   .     S
C530   C531    1.396   .     A
C530   C534    1.528   .     S
C531   C532    1.387   .     A
C531   H563    1.085   .     S
C532   C533    1.390   .     A
C532   H564    1.083   .     S
C534   C538    1.530   .     S
C534   C541    1.531   .     S
C534   C552    1.529   .     S
C535   C536    1.393   .     A
C535   C540    1.396   .     A
C536   C537    1.387   .     A
C536   H565    1.085   .     S
C537   C538    1.391   .     A
C537   H566    1.083   .     S
C538   C539    1.398   .     A
C539   C540    1.383   .     A
C539   H567    1.085   .     S
C540   H568    1.084   .     S
C541   C542    1.390   .     A
C541   C546    1.398   .     A
C542   C543    1.385   .     A
C542   H569    1.083   .     S
C543   C544    1.396   .     A
C543   H570    1.084   .     S
C544   C545    1.398   .     A
C544   C1152   1.470   1_565 S
C545   C546    1.382   .     A
C545   H571    1.084   .     S
C546   H572    1.084   .     S
C547   C548    1.387   1_556 A
C547   C552    1.391   .     A
C547   H573    1.084   .     S
C548   C547    1.387   1_554 A
C548   C549    1.395   .     A
C548   H574    1.084   .     S
C549   C550    1.398   .     A
C549   C1094   1.473   .     S
C550   C551    1.383   1_554 A
C550   H575    1.084   .     S
C551   C550    1.383   1_556 A
C551   C552    1.397   .     A
C551   H576    1.085   .     S
H559   C526    1.102   1_455 S
C577   C578    1.397   .     A
C577   C582    1.397   .     A
C577   C975    1.472   1_545 S
C578   C579    1.385   .     A
C578   H583    1.084   .     S
C579   C580    1.393   .     A
C579   H584    1.084   .     S
C580   C581    1.395   .     A
C580   C593    1.525   .     S
C581   C582    1.383   .     A
C581   H585    1.084   .     S
C582   H586    1.084   .     S
C587   C588    1.394   .     A
C587   C592    1.385   .     A
C587   H625    1.084   .     S
C588   C589    1.394   .     A
C588   C593    1.528   .     S
C589   C590    1.385   .     A
C589   H626    1.084   .     S
C590   C591    1.398   .     A
C590   H627    1.084   .     S
C591   C592    1.398   .     A
C592   H628    1.084   .     S
C593   C594    1.526   .     S
C593   C605    1.526   .     S
C594   C595    1.406   .     A
C594   C599    1.393   .     A
C595   C596    1.359   .     A
C595   H629    1.083   .     S
C596   C597    1.379   .     A
C597   C598    1.405   .     A
C597   C1254   1.466   .     S
C598   C599    1.385   .     A
C598   H630    1.084   .     S
C599   H631    1.084   .     S
C600   C601    1.385   .     A
C600   C605    1.393   .     A
C600   H632    1.084   .     S
C601   C602    1.391   .     A
C601   H633    1.083   .     S
C602   C603    1.394   .     A
C602   C606    1.526   .     S
C603   C604    1.385   .     A
C603   H634    1.085   .     S
C604   C605    1.392   .     A
C604   H635    1.083   .     S
C606   C610    1.527   .     S
C606   C613    1.527   .     S
C606   C624    1.529   .     S
C607   C608    1.395   .     A
C607   C612    1.397   .     A
C607   C668    1.472   .     S
C608   C609    1.386   .     A
C608   H636    1.084   .     S
C609   C610    1.391   .     A
C609   H637    1.083   .     S
C610   C611    1.397   .     A
C611   C612    1.383   .     A
C611   H638    1.085   .     S
C612   H639    1.084   .     S
C613   C614    1.392   .     A
C613   C618    1.396   .     A
C614   C615    1.384   .     A
C614   H640    1.083   .     S
C615   C616    1.395   .     A
C615   H641    1.084   .     S
C616   C617    1.399   .     A
C616   C720    1.471   .     S
C617   C618    1.384   .     A
C617   H642    1.084   .     S
C618   H643    1.085   .     S
C619   C620    1.387   .     A
C619   C624    1.390   .     A
C619   H644    1.083   .     S
C620   C621    1.396   .     A
C620   H645    1.084   .     S
C621   C622    1.399   .     A
C622   C623    1.382   .     A
C622   H646    1.084   .     S
C623   C624    1.398   .     A
C623   H647    1.085   .     S
C648   C649    1.394   .     A
C648   C653    1.393   .     A
C648   C1047   1.476   1_545 S
C649   C650    1.385   .     A
C649   H654    1.085   .     S
C650   C651    1.392   .     A
C650   H655    1.083   .     S
C651   C652    1.398   .     A
C651   C664    1.533   .     S
C652   C653    1.386   .     A
C652   H656    1.084   .     S
C653   H657    1.085   .     S
C658   C659    1.391   .     A
C658   C663    1.386   .     A
C658   H696    1.084   .     S
C659   C660    1.397   .     A
C659   C664    1.528   .     S
C660   C661    1.382   .     A
C660   H697    1.084   .     S
C661   C662    1.396   .     A
C661   H698    1.084   .     S
C662   C663    1.395   .     A
C663   H699    1.084   .     S
C664   C665    1.530   .     S
C664   C676    1.530   .     S
C665   C666    1.391   .     A
C665   C670    1.398   .     A
C666   C667    1.386   .     A
C666   H700    1.083   .     S
C667   C668    1.394   .     A
C667   H701    1.084   .     S
C668   C669    1.397   .     A
C669   C670    1.384   .     A
C669   H702    1.084   .     S
C670   H703    1.085   .     S
C671   C672    1.385   .     A
C671   C676    1.391   .     A
C671   H704    1.083   .     S
C672   C673    1.395   .     A
C672   H705    1.084   .     S
C673   C674    1.391   .     A
C673   C677    1.534   .     S
C674   C675    1.385   .     A
C674   H706    1.082   .     S
C675   C676    1.394   .     A
C675   H707    1.084   .     S
C677   C681    1.538   .     S
C677   C684    1.530   .     S
C677   C695    1.531   .     S
C678   C679    1.415   .     A
C678   C683    1.366   .     A
C678   C1245   1.531   1_455 S
C679   C680    1.385   .     A
C679   C1244   1.448   .     A
C680   C681    1.406   .     A
C680   H709    1.083   .     S
C681   C682    1.397   .     A
C682   C683    1.404   .     A
C682   H710    1.083   .     S
C683   H711    1.083   .     S
C684   C685    1.398   .     A
C684   C689    1.392   .     A
C685   C686    1.384   .     A
C685   H712    1.084   .     S
C686   C687    1.394   .     A
C686   H713    1.084   .     S
C687   C688    1.394   .     A
C687   C792    1.477   .     S
C688   C689    1.388   .     A
C688   H714    1.085   .     S
C689   H715    1.084   .     S
C690   C691    1.385   .     A
C690   C695    1.391   .     A
C690   H716    1.083   .     S
C691   C692    1.394   .     A
C691   H717    1.084   .     S
C692   C693    1.395   .     A
C693   C694    1.384   .     A
C693   H718    1.084   .     S
C694   C695    1.398   .     A
C694   H719    1.084   .     S
H708   C1243   1.084   1_455 S
C720   C721    1.397   .     A
C720   C725    1.398   .     A
C721   C722    1.385   .     A
C721   H726    1.084   .     S
C722   C723    1.392   .     A
C722   H727    1.084   .     S
C723   C724    1.394   .     A
C723   C736    1.526   .     S
C724   C725    1.382   .     A
C724   H728    1.084   .     S
C725   H729    1.084   .     S
C730   C731    1.394   .     A
C730   C735    1.383   .     A
C730   H768    1.084   .     S
C731   C732    1.394   .     A
C731   C736    1.527   .     S
C732   C733    1.386   .     A
C732   H769    1.084   .     S
C733   C734    1.398   .     A
C733   H770    1.084   .     S
C734   C735    1.399   .     A
C735   H771    1.084   .     S
C736   C737    1.526   .     S
C736   C748    1.528   .     S
C737   C738    1.395   .     A
C737   C742    1.395   .     A
C738   C739    1.385   .     A
C738   H772    1.084   .     S
C739   C740    1.396   .     A
C739   H773    1.084   .     S
C740   C741    1.397   .     A
C740   C894    1.474   .     S
C741   C742    1.385   .     A
C741   H774    1.084   .     S
C742   H775    1.084   .     S
C743   C744    1.385   .     A
C743   C748    1.394   .     A
C743   H776    1.084   .     S
C744   C745    1.390   .     A
C744   H777    1.083   .     S
C745   C746    1.396   .     A
C745   C749    1.528   .     S
C746   C747    1.386   .     A
C746   H778    1.085   .     S
C747   C748    1.391   .     A
C747   H779    1.083   .     S
C749   C753    1.531   .     S
C749   C756    1.529   .     S
C749   C767    1.532   .     S
C750   C751    1.396   .     A
C750   C755    1.399   .     A
C750   C812    1.473   .     S
C751   C752    1.386   .     A
C751   H780    1.084   .     S
C752   C753    1.392   .     A
C752   H781    1.083   .     S
C753   C754    1.397   .     A
C754   C755    1.383   .     A
C754   H782    1.085   .     S
C755   H783    1.084   .     S
C756   C757    1.393   .     A
C756   C761    1.397   .     A
C757   C758    1.384   .     A
C757   H784    1.082   .     S
C758   C759    1.395   .     A
C758   H785    1.084   .     S
C759   C760    1.399   .     A
C759   C936    1.472   .     S
C760   C761    1.385   .     A
C760   H786    1.084   .     S
C761   H787    1.085   .     S
C762   C763    1.387   .     A
C762   C767    1.390   .     A
C762   H788    1.083   .     S
C763   C764    1.395   .     A
C763   H789    1.084   .     S
C764   C765    1.397   .     A
C765   C766    1.382   .     A
C765   H790    1.084   .     S
C766   C767    1.399   .     A
C766   H791    1.085   .     S
C792   C793    1.396   .     A
C792   C797    1.393   .     A
C793   C794    1.385   .     A
C793   H798    1.085   .     S
C794   C795    1.396   .     A
C794   H799    1.085   .     S
C795   C796    1.393   .     A
C795   C808    1.527   .     S
C796   C797    1.386   .     A
C796   H800    1.084   .     S
C797   H801    1.085   .     S
C802   C803    1.391   .     A
C802   C807    1.387   .     A
C802   H840    1.084   .     S
C803   C804    1.397   .     A
C803   C808    1.530   .     S
C804   C805    1.383   .     A
C804   H841    1.085   .     S
C805   C806    1.398   .     A
C805   H842    1.084   .     S
C806   C807    1.396   .     A
C807   H843    1.084   .     S
C808   C809    1.528   .     S
C808   C820    1.529   .     S
C809   C810    1.395   .     A
C809   C814    1.394   .     A
C810   C811    1.385   .     A
C810   H844    1.085   .     S
C811   C812    1.398   .     A
C811   H845    1.084   .     S
C812   C813    1.397   .     A
C813   C814    1.384   .     A
C813   H846    1.084   .     S
C814   H847    1.084   .     S
C815   C816    1.386   .     A
C815   C820    1.395   .     A
C815   H848    1.085   .     S
C816   C817    1.392   .     A
C816   H849    1.083   .     S
C817   C818    1.394   .     A
C817   C821    1.526   .     S
C818   C819    1.386   .     A
C818   H850    1.085   .     S
C819   C820    1.392   .     A
C819   H851    1.083   .     S
C821   C825    1.531   .     S
C821   C828    1.528   .     S
C821   C839    1.529   .     S
C822   C823    1.494   .     S
C822   C827    1.378   .     A
C822   C885    1.525   .     S
C823   C824    1.478   .     S
C823   H852    1.102   .     S
C823   C884    1.529   .     S
C824   C825    1.362   .     A
C824   H853    1.082   .     S
C825   C826    1.427   .     A
C826   C827    1.389   .     A
C826   H854    1.084   .     S
C827   H855    1.085   .     S
C828   C829    1.391   .     A
C828   C833    1.397   .     A
C829   C830    1.386   .     A
C829   H856    1.083   .     S
C830   C831    1.396   .     A
C830   H857    1.084   .     S
C831   C832    1.399   .     A
C831   C1008   1.472   .     S
C832   C833    1.383   .     A
C832   H858    1.084   .     S
C833   H859    1.085   .     S
C834   C835    1.386   .     A
C834   C839    1.392   .     A
C834   H860    1.083   .     S
C835   C836    1.395   .     A
C835   H861    1.084   .     S
C836   C837    1.397   .     A
C837   C838    1.385   .     A
C837   H862    1.085   .     S
C838   C839    1.397   .     A
C838   H863    1.085   .     S
C864   C865    1.397   .     A
C864   C869    1.396   .     A
C864   C1263   1.465   .     S
C865   C866    1.383   .     A
C865   H870    1.084   .     S
C866   C867    1.396   .     A
C866   H871    1.085   .     S
C867   C868    1.393   .     A
C867   C880    1.527   .     S
C868   C869    1.384   .     A
C868   H872    1.084   .     S
C869   H873    1.086   .     S
C874   C875    1.392   .     A
C874   C879    1.385   .     A
C874   H912    1.083   .     S
C875   C876    1.397   .     A
C875   C880    1.528   .     S
C876   C877    1.384   .     A
C876   H913    1.085   .     S
C877   C878    1.398   .     A
C877   H914    1.084   .     S
C878   C879    1.396   .     A
C879   H915    1.084   .     S
C880   C881    1.531   .     S
C880   C892    1.528   .     S
C881   C882    1.428   .     A
C881   C886    1.362   .     A
C882   C883    1.390   .     A
C882   H916    1.084   .     S
C883   C884    1.379   1_655 A
C883   H917    1.085   1_655 S
C884   C883    1.379   1_455 A
C884   C885    1.495   .     S
C885   C886    1.477   1_455 S
C885   H918    1.102   .     S
C886   C885    1.477   1_655 S
C886   H919    1.082   .     S
C887   C888    1.385   .     A
C887   C892    1.395   .     A
C887   H920    1.085   .     S
C888   C889    1.391   .     A
C888   H921    1.083   .     S
C889   C890    1.396   .     A
C889   C893    1.529   .     S
C890   C891    1.387   .     A
C890   H922    1.085   .     S
C891   C892    1.390   .     A
C891   H923    1.083   .     S
C893   C897    1.531   .     S
C893   C900    1.531   .     S
C893   C911    1.532   .     S
C894   C895    1.395   .     A
C894   C899    1.398   .     A
C895   C896    1.387   .     A
C895   H924    1.084   .     S
C896   C897    1.391   .     A
C896   H925    1.084   .     S
C897   C898    1.398   .     A
C898   C899    1.383   .     A
C898   H926    1.085   .     S
C899   H927    1.084   .     S
C900   C901    1.391   .     A
C900   C905    1.398   .     A
C901   C902    1.384   .     A
C901   H928    1.083   .     S
C902   C903    1.395   .     A
C902   H929    1.084   .     S
C903   C904    1.397   .     A
C903   C1080   1.471   .     S
C904   C905    1.384   .     A
C904   H930    1.084   .     S
C905   H931    1.085   .     S
C906   C907    1.387   .     A
C906   C911    1.391   .     A
C906   H932    1.083   .     S
C907   C908    1.395   .     A
C907   H933    1.084   .     S
C908   C909    1.398   .     A
C909   C910    1.382   .     A
C909   H934    1.084   .     S
C910   C911    1.398   .     A
C910   H935    1.084   .     S
H917   C883    1.085   1_455 S
C936   C937    1.398   .     A
C936   C941    1.397   .     A
C937   C938    1.385   .     A
C937   H942    1.084   .     S
C938   C939    1.393   .     A
C938   H943    1.084   .     S
C939   C940    1.394   .     A
C939   C952    1.526   .     S
C940   C941    1.384   .     A
C940   H944    1.084   .     S
C941   H945    1.084   .     S
C946   C947    1.395   .     A
C946   C951    1.384   .     A
C946   H984    1.084   .     S
C947   C948    1.394   .     A
C947   C952    1.528   .     S
C948   C949    1.386   .     A
C948   H985    1.084   .     S
C949   C950    1.398   .     A
C949   H986    1.084   .     S
C950   C951    1.398   .     A
C951   H987    1.084   .     S
C952   C953    1.527   .     S
C952   C964    1.528   .     S
C953   C954    1.396   .     A
C953   C958    1.394   .     A
C954   C955    1.384   .     A
C954   H988    1.084   .     S
C955   C956    1.397   .     A
C955   H989    1.084   .     S
C956   C957    1.397   .     A
C956   C1110   1.474   .     S
C957   C958    1.386   .     A
C957   H990    1.084   .     S
C958   H991    1.084   .     S
C959   C960    1.385   .     A
C959   C964    1.393   .     A
C959   H992    1.084   .     S
C960   C961    1.390   .     A
C960   H993    1.083   .     S
C961   C962    1.395   .     A
C961   C965    1.527   .     S
C962   C963    1.386   .     A
C962   H994    1.085   .     S
C963   C964    1.391   .     A
C963   H995    1.083   .     S
C965   C969    1.530   .     S
C965   C972    1.529   .     S
C965   C983    1.532   .     S
C966   C967    1.395   .     A
C966   C971    1.398   .     A
C966   C1028   1.472   .     S
C967   C968    1.386   .     A
C967   H996    1.084   .     S
C968   C969    1.391   .     A
C968   H997    1.083   .     S
C969   C970    1.397   .     A
C970   C971    1.383   .     A
C970   H998    1.085   .     S
C971   H999    1.084   .     S
C972   C973    1.392   .     A
C972   C977    1.397   .     A
C973   C974    1.385   .     A
C973   H1000   1.083   .     S
C974   C975    1.394   .     A
C974   H1001   1.084   .     S
C975   C577    1.472   1_565 S
C975   C976    1.398   .     A
C976   C977    1.385   .     A
C976   H1002   1.084   .     S
C977   H1003   1.085   .     S
C978   C979    1.387   .     A
C978   C983    1.390   .     A
C978   H1004   1.083   .     S
C979   C980    1.396   .     A
C979   H1005   1.084   .     S
C980   C981    1.398   .     A
C981   C982    1.382   .     A
C981   H1006   1.084   .     S
C982   C983    1.399   .     A
C982   H1007   1.085   .     S
C1008  C1009   1.397   .     A
C1008  C1013   1.398   .     A
C1009  C1010   1.385   .     A
C1009  H1014   1.084   .     S
C1010  C1011   1.393   .     A
C1010  H1015   1.084   .     S
C1011  C1012   1.394   .     A
C1011  C1024   1.525   .     S
C1012  C1013   1.384   .     A
C1012  H1016   1.084   .     S
C1013  H1017   1.084   .     S
C1018  C1019   1.394   .     A
C1018  C1023   1.385   .     A
C1018  H1056   1.084   .     S
C1019  C1020   1.395   .     A
C1019  C1024   1.529   .     S
C1020  C1021   1.385   .     A
C1020  H1057   1.084   .     S
C1021  C1022   1.396   .     A
C1021  H1058   1.084   .     S
C1022  C1023   1.396   .     A
C1023  H1059   1.085   .     S
C1024  C1025   1.526   .     S
C1024  C1036   1.527   .     S
C1025  C1026   1.394   .     A
C1025  C1030   1.394   .     A
C1026  C1027   1.385   .     A
C1026  H1060   1.084   .     S
C1027  C1028   1.397   .     A
C1027  H1061   1.084   .     S
C1028  C1029   1.397   .     A
C1029  C1030   1.384   .     A
C1029  H1062   1.084   .     S
C1030  H1063   1.084   .     S
C1031  C1032   1.386   .     A
C1031  C1036   1.394   .     A
C1031  H1064   1.084   .     S
C1032  C1033   1.392   .     A
C1032  H1065   1.084   .     S
C1033  C1034   1.394   .     A
C1033  C1037   1.527   .     S
C1034  C1035   1.385   .     A
C1034  H1066   1.084   .     S
C1035  C1036   1.392   .     A
C1035  H1067   1.084   .     S
C1037  C1041   1.531   .     S
C1037  C1044   1.529   .     S
C1037  C1055   1.528   .     S
C1038  C1039   1.493   .     S
C1038  C1043   1.377   .     A
C1038  C1101   1.524   .     S
C1039  C1040   1.477   .     S
C1039  H1068   1.103   .     S
C1039  C1100   1.530   .     S
C1040  C1041   1.363   .     A
C1040  H1069   1.083   .     S
C1041  C1042   1.425   .     A
C1042  C1043   1.390   .     A
C1042  H1070   1.083   .     S
C1043  H1071   1.085   .     S
C1044  C1045   1.394   .     A
C1044  C1049   1.396   .     A
C1045  C1046   1.385   .     A
C1045  H1072   1.083   .     S
C1046  C1047   1.393   .     A
C1046  H1073   1.085   .     S
C1047  C648    1.476   1_565 S
C1047  C1048   1.395   .     A
C1048  C1049   1.386   .     A
C1048  H1074   1.085   .     S
C1049  H1075   1.085   .     S
C1050  C1051   1.387   .     A
C1050  C1055   1.393   .     A
C1050  H1076   1.084   .     S
C1051  C1052   1.396   .     A
C1051  H1077   1.085   .     S
C1052  C1053   1.397   .     A
C1053  C1054   1.385   .     A
C1053  H1078   1.085   .     S
C1054  C1055   1.397   .     A
C1054  H1079   1.085   .     S
C1080  C1081   1.398   .     A
C1080  C1085   1.396   .     A
C1081  C1082   1.383   .     A
C1081  H1086   1.084   .     S
C1082  C1083   1.395   .     A
C1082  H1087   1.085   .     S
C1083  C1084   1.392   .     A
C1083  C1096   1.526   .     S
C1084  C1085   1.385   .     A
C1084  H1088   1.084   .     S
C1085  H1089   1.084   .     S
C1090  C1091   1.393   .     A
C1090  C1095   1.385   .     A
C1090  H1128   1.084   .     S
C1091  C1092   1.396   .     A
C1091  C1096   1.528   .     S
C1092  C1093   1.385   .     A
C1092  H1129   1.085   .     S
C1093  C1094   1.397   .     A
C1093  H1130   1.084   .     S
C1094  C1095   1.396   .     A
C1095  H1131   1.084   .     S
C1096  C1097   1.531   .     S
C1096  C1108   1.527   .     S
C1097  C1098   1.429   .     A
C1097  C1102   1.361   .     A
C1098  C1099   1.390   .     A
C1098  H1132   1.083   .     S
C1099  C1100   1.380   1_655 A
C1099  H1133   1.085   1_655 S
C1100  C1099   1.380   1_455 A
C1100  C1101   1.496   .     S
C1101  C1102   1.478   1_455 S
C1101  H1134   1.102   .     S
C1102  C1101   1.478   1_655 S
C1102  H1135   1.082   .     S
C1103  C1104   1.385   .     A
C1103  C1108   1.395   .     A
C1103  H1136   1.085   .     S
C1104  C1105   1.390   .     A
C1104  H1137   1.083   .     S
C1105  C1106   1.396   .     A
C1105  C1109   1.529   .     S
C1106  C1107   1.386   .     A
C1106  H1138   1.085   .     S
C1107  C1108   1.391   .     A
C1107  H1139   1.083   .     S
C1109  C1113   1.531   .     S
C1109  C1116   1.530   .     S
C1109  C1127   1.534   .     S
C1110  C1111   1.396   .     A
C1110  C1115   1.398   .     A
C1111  C1112   1.387   .     A
C1111  H1140   1.084   .     S
C1112  C1113   1.391   .     A
C1112  H1141   1.084   .     S
C1113  C1114   1.397   .     A
C1114  C1115   1.383   .     A
C1114  H1142   1.085   .     S
C1115  H1143   1.084   .     S
C1116  C1117   1.392   .     A
C1116  C1121   1.398   .     A
C1117  C1118   1.385   .     A
C1117  H1144   1.083   .     S
C1118  C1119   1.393   .     A
C1118  H1145   1.084   .     S
C1119  C1120   1.396   .     A
C1119  C1224   1.472   .     S
C1120  C1121   1.385   .     A
C1120  H1146   1.084   .     S
C1121  H1147   1.085   .     S
C1122  C1123   1.387   .     A
C1122  C1127   1.391   .     A
C1122  H1148   1.083   .     S
C1123  C1124   1.395   .     A
C1123  H1149   1.084   .     S
C1124  C1125   1.399   .     A
C1125  C1126   1.382   .     A
C1125  H1150   1.084   .     S
C1126  C1127   1.398   .     A
C1126  H1151   1.085   .     S
H1133  C1099   1.085   1_455 S
C1152  C544    1.470   1_545 S
C1152  C1153   1.399   .     A
C1152  C1157   1.396   .     A
C1153  C1154   1.382   .     A
C1153  H1158   1.084   .     S
C1154  C1155   1.396   .     A
C1154  H1159   1.085   .     S
C1155  C1156   1.391   .     A
C1155  C1168   1.529   .     S
C1156  C1157   1.385   .     A
C1156  H1160   1.083   .     S
C1157  H1161   1.084   .     S
C1162  C1163   1.392   .     A
C1162  C1167   1.385   .     A
C1162  H1200   1.083   .     S
C1163  C1164   1.397   .     A
C1163  C1168   1.529   .     S
C1164  C1165   1.386   .     A
C1164  H1201   1.085   .     S
C1165  C1166   1.398   .     A
C1165  H1202   1.084   .     S
C1166  C1167   1.395   .     A
C1166  C1268   1.474   .     S
C1167  H1203   1.084   .     S
C1168  C1169   1.534   .     S
C1168  C1180   1.527   .     S
C1169  C1170   1.429   .     A
C1169  C1174   1.362   .     A
C1170  C1171   1.387   .     A
C1170  H1204   1.083   .     S
C1171  C1172   1.378   .     A
C1171  H1205   1.085   .     S
C1172  C104    1.521   1_655 S
C1172  C1173   1.495   .     S
C1173  C103    1.530   1_655 S
C1173  C1174   1.480   .     S
C1173  H1206   1.102   .     S
C1174  H1207   1.082   .     S
C1175  C1176   1.385   .     A
C1175  C1180   1.395   .     A
C1175  H1208   1.085   .     S
C1176  C1177   1.391   .     A
C1176  H1209   1.083   .     S
C1177  C1178   1.395   .     A
C1177  C1181   1.529   .     S
C1178  C1179   1.387   .     A
C1178  H1210   1.085   .     S
C1179  C1180   1.391   .     A
C1179  H1211   1.083   .     S
C1181  C1185   1.531   .     S
C1181  C1188   1.532   .     S
C1181  C1199   1.529   .     S
C1182  C1183   1.394   .     A
C1182  C1187   1.396   .     A
C1183  C1184   1.388   .     A
C1183  H1212   1.085   .     S
C1184  C1185   1.391   .     A
C1184  H1213   1.083   .     S
C1185  C1186   1.399   .     A
C1186  C1187   1.383   .     A
C1186  H1214   1.085   .     S
C1187  H1215   1.084   .     S
C1188  C1189   1.390   .     A
C1188  C1193   1.398   .     A
C1189  C1190   1.385   .     A
C1189  H1216   1.083   .     S
C1190  C1191   1.396   .     A
C1190  H1217   1.084   .     S
C1191  C1192   1.399   .     A
C1192  C1193   1.382   .     A
C1192  H1218   1.084   .     S
C1193  H1219   1.085   .     S
C1194  C1195   1.387   1_556 A
C1194  C1199   1.392   .     A
C1194  H1220   1.084   .     S
C1195  C1194   1.387   1_554 A
C1195  C1196   1.394   .     A
C1195  H1221   1.085   .     S
C1196  C1197   1.397   .     A
C1196  C1238   1.476   .     S
C1197  C1198   1.384   1_554 A
C1197  H1222   1.085   .     S
C1198  C1197   1.384   1_556 A
C1198  C1199   1.397   .     A
C1198  H1223   1.085   .     S
C1224  C1225   1.395   1_565 A
C1224  C1229   1.396   1_565 A
C1225  C1224   1.395   1_545 A
C1225  C1226   1.385   .     A
C1225  H1230   1.084   1_545 S
C1226  C1227   1.392   .     A
C1226  H1231   1.084   .     S
C1227  C1228   1.396   .     A
C1227  C1240   1.529   .     S
C1228  C1229   1.384   .     A
C1228  H1232   1.084   .     S
C1229  C1224   1.396   1_545 A
C1229  H1233   1.084   .     S
H1230  C1225   1.084   1_565 S
C1234  C1235   1.396   .     A
C1234  C1239   1.384   .     A
C1234  H1272   1.084   .     S
C1235  C1236   1.393   .     A
C1235  C1240   1.528   .     S
C1236  C1237   1.388   .     A
C1236  H1273   1.084   .     S
C1237  C1238   1.395   .     A
C1237  H1274   1.085   .     S
C1238  C1239   1.397   .     A
C1239  H1275   1.085   .     S
C1240  C1241   1.533   .     S
C1240  C1252   1.526   .     S
C1241  C1242   1.427   .     A
C1241  C1246   1.366   .     A
C1242  C1243   1.399   .     A
C1242  H1276   1.083   .     S
C1243  H708    1.084   1_655 S
C1243  C1244   1.370   1_655 A
C1244  C1243   1.370   1_455 A
C1244  C1245   1.518   1_455 S
C1245  C678    1.531   1_655 S
C1245  C1244   1.518   1_655 S
C1245  C1246   1.488   .     S
C1245  H1277   1.102   1_655 S
C1246  H1278   1.083   .     S
C1247  C1248   1.385   .     A
C1247  C1252   1.392   .     A
C1247  H1279   1.083   .     S
C1248  C1249   1.392   .     A
C1248  H1280   1.084   .     S
C1249  C1250   1.393   .     A
C1249  C1253   1.528   .     S
C1250  C1251   1.386   .     A
C1250  H1281   1.084   .     S
C1251  C1252   1.393   .     A
C1251  H1282   1.085   .     S
C1253  C1257   1.527   .     S
C1253  C1260   1.525   .     S
C1253  C1271   1.527   .     S
C1254  C1255   1.399   .     A
C1254  C1259   1.396   .     A
C1255  C1256   1.383   .     A
C1255  H1283   1.086   .     S
C1256  C1257   1.395   .     A
C1256  H1284   1.084   .     S
C1257  C1258   1.395   .     A
C1258  C1259   1.385   .     A
C1258  H1285   1.084   .     S
C1259  H1286   1.084   .     S
C1260  C1261   1.394   .     A
C1260  C1265   1.404   .     A
C1261  C1262   1.383   .     A
C1261  H1287   1.084   .     S
C1262  C1263   1.404   .     A
C1262  H1288   1.085   .     S
C1263  C1264   1.377   .     A
C1264  C1265   1.360   .     A
C1265  H1289   1.083   .     S
C1266  C1267   1.385   .     A
C1266  C1271   1.395   .     A
C1266  H1290   1.084   .     S
C1267  C1268   1.397   .     A
C1267  H1291   1.084   .     S
C1268  C1269   1.397   .     A
C1269  C1270   1.385   .     A
C1269  H1292   1.084   .     S
C1270  C1271   1.394   .     A
C1270  H1293   1.084   .     S
H1277  C1245   1.102   1_455 S
