data_Si_acs_dftb_opt2
_audit_creation_date              2023-10-04
_audit_creation_method            'Materials Studio'
_symmetry_space_group_name_H-M    'P1'
_symmetry_Int_Tables_number       1
_symmetry_cell_setting            triclinic
loop_
_symmetry_equiv_pos_as_xyz
  x,y,z
_cell_length_a                    35.9965
_cell_length_b                    35.4078
_cell_length_c                    41.5302
_cell_angle_alpha                 90.3721
_cell_angle_beta                  89.8694
_cell_angle_gamma                 120.0794
loop_
_atom_site_label
_atom_site_type_symbol
_atom_site_fract_x
_atom_site_fract_y
_atom_site_fract_z
_atom_site_U_iso_or_equiv
_atom_site_adp_type
_atom_site_occupancy
C1     C     0.26894   0.02776   0.25711   0.00000  Uiso   1.00
C2     C     0.31051   0.05715   0.24671   0.00000  Uiso   1.00
C3     C     0.33198   0.09969   0.25813   0.00000  Uiso   1.00
C4     C     0.31322   0.11506   0.28051   0.00000  Uiso   1.00
C5     C     0.27151   0.08478   0.29096   0.00000  Uiso   1.00
C6     C     0.24983   0.04228   0.27958   0.00000  Uiso   1.00
H7     H     0.32643   0.04650   0.22977   0.00000  Uiso   1.00
H8     H     0.36425   0.12158   0.24944   0.00000  Uiso   1.00
H9     H     0.25563   0.09490   0.30845   0.00000  Uiso   1.00
H10    H     0.21740   0.02027   0.28783   0.00000  Uiso   1.00
C11    C     0.27256   0.17900   0.26142   0.00000  Uiso   1.00
C12    C     0.31096   0.20145   0.27905   0.00000  Uiso   1.00
C13    C     0.32679   0.24628   0.28439   0.00000  Uiso   1.00
C14    C     0.30557   0.26711   0.27319   0.00000  Uiso   1.00
C15    C     0.26727   0.24408   0.25587   0.00000  Uiso   1.00
C16    C     0.25121   0.19965   0.25008   0.00000  Uiso   1.00
Si17   Si    0.34046   0.17375   0.29535   0.00000  Uiso   1.00
C18    C     0.39814   0.20365   0.28060   0.00000  Uiso   1.00
C19    C     0.42952   0.19617   0.29441   0.00000  Uiso   1.00
C20    C     0.47113   0.21596   0.28288   0.00000  Uiso   1.00
C21    C     0.48368   0.24460   0.25684   0.00000  Uiso   1.00
C22    C     0.45306   0.25269   0.24292   0.00000  Uiso   1.00
C23    C     0.41143   0.23263   0.25450   0.00000  Uiso   1.00
C24    C     0.32970   0.20129   0.35938   0.00000  Uiso   1.00
C25    C     0.32953   0.20082   0.39272   0.00000  Uiso   1.00
C26    C     0.33872   0.17261   0.41018   0.00000  Uiso   1.00
C27    C     0.34816   0.14487   0.39191   0.00000  Uiso   1.00
C28    C     0.34825   0.14529   0.35859   0.00000  Uiso   1.00
C29    C     0.33910   0.17360   0.34113   0.00000  Uiso   1.00
Si30   Si    0.33853   0.17242   0.45589   0.00000  Uiso   1.00
C31    C     0.26303   0.02780   0.49565   0.00000  Uiso   1.00
C32    C     0.29043   0.06296   0.51537   0.00000  Uiso   1.00
C33    C     0.31244   0.10487   0.50322   0.00000  Uiso   1.00
C34    C     0.30831   0.11399   0.47092   0.00000  Uiso   1.00
C35    C     0.28042   0.07821   0.45156   0.00000  Uiso   1.00
C36    C     0.25838   0.03617   0.46353   0.00000  Uiso   1.00
C37    C     0.31032   0.20233   0.47087   0.00000  Uiso   1.00
C38    C     0.33197   0.24697   0.47892   0.00000  Uiso   1.00
C39    C     0.31033   0.26781   0.48950   0.00000  Uiso   1.00
C40    C     0.26560   0.24516   0.49215   0.00000  Uiso   1.00
C41    C     0.24343   0.20095   0.48365   0.00000  Uiso   1.00
C42    C     0.26529   0.18018   0.47346   0.00000  Uiso   1.00
C43    C     0.40707   0.22155   0.50185   0.00000  Uiso   1.00
C44    C     0.44866   0.24132   0.51353   0.00000  Uiso   1.00
C45    C     0.48116   0.23992   0.49603   0.00000  Uiso   1.00
C46    C     0.47024   0.21773   0.46651   0.00000  Uiso   1.00
C47    C     0.42872   0.19854   0.45477   0.00000  Uiso   1.00
C48    C     0.39565   0.19988   0.47190   0.00000  Uiso   1.00
H49    H     0.25901   0.14444   0.25631   0.00000  Uiso   1.00
H50    H     0.35658   0.26538   0.29764   0.00000  Uiso   1.00
H51    H     0.31858   0.30155   0.27834   0.00000  Uiso   1.00
H52    H     0.22200   0.18112   0.23616   0.00000  Uiso   1.00
H53    H     0.42109   0.17415   0.31471   0.00000  Uiso   1.00
H54    H     0.49401   0.20860   0.29396   0.00000  Uiso   1.00
H55    H     0.46199   0.27533   0.22304   0.00000  Uiso   1.00
H56    H     0.38861   0.23976   0.24295   0.00000  Uiso   1.00
H57    H     0.32206   0.22365   0.34726   0.00000  Uiso   1.00
H58    H     0.32187   0.22289   0.40556   0.00000  Uiso   1.00
H59    H     0.35539   0.12223   0.40410   0.00000  Uiso   1.00
H60    H     0.35534   0.12281   0.34572   0.00000  Uiso   1.00
H61    H     0.29415   0.05752   0.54053   0.00000  Uiso   1.00
H62    H     0.33351   0.13139   0.51927   0.00000  Uiso   1.00
H63    H     0.27591   0.08331   0.42644   0.00000  Uiso   1.00
H64    H     0.23779   1.00939   0.44757   0.00000  Uiso   1.00
H65    H     0.36671   0.26593   0.47700   0.00000  Uiso   1.00
H66    H     0.32855   0.30203   0.49625   0.00000  Uiso   1.00
H67    H     0.20864   0.18263   0.48474   0.00000  Uiso   1.00
H68    H     0.24687   0.14570   0.46729   0.00000  Uiso   1.00
H69    H     0.38281   0.22326   0.51638   0.00000  Uiso   1.00
H70    H     0.45604   0.25867   0.53634   0.00000  Uiso   1.00
H71    H     0.49442   0.21513   0.45260   0.00000  Uiso   1.00
H72    H     0.42182   0.18204   0.43156   0.00000  Uiso   1.00
C73    C     0.23985   0.48297   0.00820   0.00000  Uiso   1.00
C74    C     0.19810   0.45358  -0.00200   0.00000  Uiso   1.00
C75    C     0.17671   0.41112   0.00921   0.00000  Uiso   1.00
C76    C     0.19582   0.39571   0.03098   0.00000  Uiso   1.00
C77    C     0.23763   0.42607   0.04138   0.00000  Uiso   1.00
C78    C     0.25915   0.46858   0.03037   0.00000  Uiso   1.00
H79    H     0.18199   0.46413   0.98136   0.00000  Uiso   1.00
H80    H     0.14423   0.38936   0.00074   0.00000  Uiso   1.00
H81    H     0.25372   0.41599   0.05853   0.00000  Uiso   1.00
H82    H     0.29163   0.49065   0.03861   0.00000  Uiso   1.00
C83    C     0.23694   0.33214   0.00948   0.00000  Uiso   1.00
C84    C     0.19920   0.31006   0.02778   0.00000  Uiso   1.00
C85    C     0.18372   0.26542   0.03328   0.00000  Uiso   1.00
C86    C     0.20488   0.24451   0.02183   0.00000  Uiso   1.00
C87    C     0.24263   0.26717   0.00390   0.00000  Uiso   1.00
C88    C     0.25808   0.31132  -0.00228   0.00000  Uiso   1.00
Si89   Si    0.16951   0.33710   0.04535   0.00000  Uiso   1.00
C90    C     0.11147   0.30586   0.03148   0.00000  Uiso   1.00
C91    C     0.07613   0.28737   0.05245   0.00000  Uiso   1.00
C92    C     0.03429   0.26568   0.04116   0.00000  Uiso   1.00
C93    C     0.02557   0.26170   0.00814   0.00000  Uiso   1.00
C94    C     0.06036   0.27953  -0.01312   0.00000  Uiso   1.00
C95    C     0.10207   0.30072  -0.00169   0.00000  Uiso   1.00
C96    C     0.18645   0.31302   0.10858   0.00000  Uiso   1.00
C97    C     0.18654   0.31299   0.14194   0.00000  Uiso   1.00
C98    C     0.17203   0.33672   0.16000   0.00000  Uiso   1.00
C99    C     0.15742   0.36062   0.14239   0.00000  Uiso   1.00
C100   C     0.15722   0.36054   0.10909   0.00000  Uiso   1.00
C101   C     0.17166   0.33663   0.09101   0.00000  Uiso   1.00
Si102  Si    0.17115   0.33678   0.20569   0.00000  Uiso   1.00
C103   C     0.24573   0.48264   0.24472   0.00000  Uiso   1.00
C104   C     0.21863   0.44806   0.26471   0.00000  Uiso   1.00
C105   C     0.19667   0.40575   0.25296   0.00000  Uiso   1.00
C106   C     0.20039   0.39553   0.22076   0.00000  Uiso   1.00
C107   C     0.22790   0.43079   0.20108   0.00000  Uiso   1.00
C108   C     0.25002   0.47324   0.21267   0.00000  Uiso   1.00
C109   C     0.19976   0.30798   0.22166   0.00000  Uiso   1.00
C110   C     0.17789   0.26478   0.23282   0.00000  Uiso   1.00
C111   C     0.19951   0.24423   0.24379   0.00000  Uiso   1.00
C112   C     0.24433   0.26595   0.24407   0.00000  Uiso   1.00
C113   C     0.26671   0.30889   0.23294   0.00000  Uiso   1.00
C114   C     0.24489   0.32925   0.22207   0.00000  Uiso   1.00
C115   C     0.10421   0.29792   0.25346   0.00000  Uiso   1.00
C116   C     0.06268   0.27783   0.26518   0.00000  Uiso   1.00
C117   C     0.02793   0.26577   0.24445   0.00000  Uiso   1.00
C118   C     0.03639   0.27437   0.21165   0.00000  Uiso   1.00
C119   C     0.07807   0.29476   0.20013   0.00000  Uiso   1.00
C120   C     0.11350   0.30747   0.22058   0.00000  Uiso   1.00
H121   H     0.25016   0.36655   0.00424   0.00000  Uiso   1.00
H122   H     0.15433   0.24658   0.04696   0.00000  Uiso   1.00
H123   H     0.19223   0.21029   0.02729   0.00000  Uiso   1.00
H124   H     0.28675   0.32960  -0.01672   0.00000  Uiso   1.00
H125   H     0.08145   0.28996   0.07831   0.00000  Uiso   1.00
H126   H     1.00808   0.25133   0.05831   0.00000  Uiso   1.00
H127   H     0.05478   0.27738   0.96113   0.00000  Uiso   1.00
H128   H     0.12823   0.31381  -0.01899   0.00000  Uiso   1.00
H129   H     0.19824   0.29420   0.09588   0.00000  Uiso   1.00
H130   H     0.19828   0.29405   0.15428   0.00000  Uiso   1.00
H131   H     0.14605   0.37977   0.15517   0.00000  Uiso   1.00
H132   H     0.14568   0.37964   0.09667   0.00000  Uiso   1.00
H133   H     0.21515   0.45426   0.28983   0.00000  Uiso   1.00
H134   H     0.17602   0.37986   0.26937   0.00000  Uiso   1.00
H135   H     0.23207   0.42494   0.17598   0.00000  Uiso   1.00
H136   H     0.27039   0.49949   0.19646   0.00000  Uiso   1.00
H137   H     0.14302   0.24677   0.23302   0.00000  Uiso   1.00
H138   H     0.18131   0.21110   0.25271   0.00000  Uiso   1.00
H139   H     0.30153   0.32633   0.23243   0.00000  Uiso   1.00
H140   H     0.26338   0.36268   0.21361   0.00000  Uiso   1.00
H141   H     0.13024   0.30643   0.27040   0.00000  Uiso   1.00
H142   H     0.05725   0.27195   0.29082   0.00000  Uiso   1.00
H143   H     0.01005   0.26451   0.19483   0.00000  Uiso   1.00
H144   H     0.08315   0.30078   0.17444   0.00000  Uiso   1.00
C145   C     0.76894   0.02776   0.25711   0.00000  Uiso   1.00
C146   C     0.81051   0.05715   0.24671   0.00000  Uiso   1.00
C147   C     0.83198   0.09969   0.25813   0.00000  Uiso   1.00
C148   C     0.81322   0.11506   0.28051   0.00000  Uiso   1.00
C149   C     0.77151   0.08478   0.29096   0.00000  Uiso   1.00
C150   C     0.74983   0.04228   0.27958   0.00000  Uiso   1.00
H151   H     0.82643   0.04650   0.22977   0.00000  Uiso   1.00
H152   H     0.86425   0.12158   0.24944   0.00000  Uiso   1.00
H153   H     0.75564   0.09490   0.30845   0.00000  Uiso   1.00
H154   H     0.71740   0.02027   0.28783   0.00000  Uiso   1.00
C155   C     0.77256   0.17900   0.26142   0.00000  Uiso   1.00
C156   C     0.81096   0.20145   0.27905   0.00000  Uiso   1.00
C157   C     0.82679   0.24628   0.28439   0.00000  Uiso   1.00
C158   C     0.80557   0.26711   0.27319   0.00000  Uiso   1.00
C159   C     0.76727   0.24408   0.25587   0.00000  Uiso   1.00
C160   C     0.75121   0.19965   0.25008   0.00000  Uiso   1.00
Si161  Si    0.84046   0.17375   0.29535   0.00000  Uiso   1.00
C162   C     0.89814   0.20365   0.28060   0.00000  Uiso   1.00
C163   C     0.92952   0.19617   0.29441   0.00000  Uiso   1.00
C164   C     0.97113   0.21596   0.28288   0.00000  Uiso   1.00
C165   C     0.98368   0.24460   0.25684   0.00000  Uiso   1.00
C166   C     0.95306   0.25269   0.24292   0.00000  Uiso   1.00
C167   C     0.91144   0.23263   0.25450   0.00000  Uiso   1.00
C168   C     0.82970   0.20129   0.35938   0.00000  Uiso   1.00
C169   C     0.82953   0.20082   0.39272   0.00000  Uiso   1.00
C170   C     0.83872   0.17261   0.41018   0.00000  Uiso   1.00
C171   C     0.84816   0.14487   0.39191   0.00000  Uiso   1.00
C172   C     0.84825   0.14529   0.35859   0.00000  Uiso   1.00
C173   C     0.83910   0.17360   0.34113   0.00000  Uiso   1.00
Si174  Si    0.83853   0.17242   0.45589   0.00000  Uiso   1.00
C175   C     0.76303   0.02780   0.49565   0.00000  Uiso   1.00
C176   C     0.79043   0.06296   0.51537   0.00000  Uiso   1.00
C177   C     0.81244   0.10487   0.50322   0.00000  Uiso   1.00
C178   C     0.80831   0.11399   0.47092   0.00000  Uiso   1.00
C179   C     0.78042   0.07821   0.45156   0.00000  Uiso   1.00
C180   C     0.75838   0.03617   0.46353   0.00000  Uiso   1.00
C181   C     0.81032   0.20233   0.47087   0.00000  Uiso   1.00
C182   C     0.83197   0.24697   0.47892   0.00000  Uiso   1.00
C183   C     0.81033   0.26781   0.48950   0.00000  Uiso   1.00
C184   C     0.76561   0.24516   0.49215   0.00000  Uiso   1.00
C185   C     0.74343   0.20095   0.48365   0.00000  Uiso   1.00
C186   C     0.76529   0.18018   0.47346   0.00000  Uiso   1.00
C187   C     0.90707   0.22155   0.50185   0.00000  Uiso   1.00
C188   C     0.94866   0.24132   0.51353   0.00000  Uiso   1.00
C189   C     0.98116   0.23992   0.49603   0.00000  Uiso   1.00
C190   C     0.97024   0.21773   0.46651   0.00000  Uiso   1.00
C191   C     0.92872   0.19854   0.45477   0.00000  Uiso   1.00
C192   C     0.89565   0.19988   0.47190   0.00000  Uiso   1.00
H193   H     0.75901   0.14444   0.25631   0.00000  Uiso   1.00
H194   H     0.85658   0.26538   0.29764   0.00000  Uiso   1.00
H195   H     0.81858   0.30155   0.27834   0.00000  Uiso   1.00
H196   H     0.72200   0.18112   0.23616   0.00000  Uiso   1.00
H197   H     0.92109   0.17415   0.31471   0.00000  Uiso   1.00
H198   H     0.99401   0.20860   0.29396   0.00000  Uiso   1.00
H199   H     0.96200   0.27533   0.22304   0.00000  Uiso   1.00
H200   H     0.88861   0.23976   0.24295   0.00000  Uiso   1.00
H201   H     0.82206   0.22365   0.34726   0.00000  Uiso   1.00
H202   H     0.82187   0.22289   0.40556   0.00000  Uiso   1.00
H203   H     0.85539   0.12223   0.40410   0.00000  Uiso   1.00
H204   H     0.85534   0.12281   0.34572   0.00000  Uiso   1.00
H205   H     0.79415   0.05752   0.54053   0.00000  Uiso   1.00
H206   H     0.83351   0.13139   0.51927   0.00000  Uiso   1.00
H207   H     0.77591   0.08331   0.42644   0.00000  Uiso   1.00
H208   H     0.73779   1.00939   0.44757   0.00000  Uiso   1.00
H209   H     0.86671   0.26593   0.47700   0.00000  Uiso   1.00
H210   H     0.82855   0.30203   0.49625   0.00000  Uiso   1.00
H211   H     0.70864   0.18263   0.48474   0.00000  Uiso   1.00
H212   H     0.74687   0.14570   0.46729   0.00000  Uiso   1.00
H213   H     0.88281   0.22326   0.51638   0.00000  Uiso   1.00
H214   H     0.95604   0.25867   0.53634   0.00000  Uiso   1.00
H215   H    -0.00558   0.21513   0.45260   0.00000  Uiso   1.00
H216   H     0.92182   0.18204   0.43156   0.00000  Uiso   1.00
C217   C     0.73985   0.48297   0.00820   0.00000  Uiso   1.00
C218   C     0.69810   0.45358  -0.00200   0.00000  Uiso   1.00
C219   C     0.67671   0.41112   0.00921   0.00000  Uiso   1.00
C220   C     0.69581   0.39571   0.03097   0.00000  Uiso   1.00
C221   C     0.73763   0.42607   0.04138   0.00000  Uiso   1.00
C222   C     0.75915   0.46858   0.03037   0.00000  Uiso   1.00
H223   H     0.68199   0.46413   0.98136   0.00000  Uiso   1.00
H224   H     0.64423   0.38936   0.00074   0.00000  Uiso   1.00
H225   H     0.75372   0.41599   0.05853   0.00000  Uiso   1.00
H226   H     0.79163   0.49065   0.03861   0.00000  Uiso   1.00
C227   C     0.73694   0.33214   0.00948   0.00000  Uiso   1.00
C228   C     0.69920   0.31006   0.02778   0.00000  Uiso   1.00
C229   C     0.68373   0.26542   0.03328   0.00000  Uiso   1.00
C230   C     0.70488   0.24451   0.02183   0.00000  Uiso   1.00
C231   C     0.74263   0.26717   0.00390   0.00000  Uiso   1.00
C232   C     0.75808   0.31132  -0.00228   0.00000  Uiso   1.00
Si233  Si    0.66951   0.33710   0.04535   0.00000  Uiso   1.00
C234   C     0.61147   0.30586   0.03148   0.00000  Uiso   1.00
C235   C     0.57613   0.28737   0.05245   0.00000  Uiso   1.00
C236   C     0.53429   0.26568   0.04116   0.00000  Uiso   1.00
C237   C     0.52557   0.26170   0.00814   0.00000  Uiso   1.00
C238   C     0.56036   0.27953  -0.01312   0.00000  Uiso   1.00
C239   C     0.60207   0.30072  -0.00169   0.00000  Uiso   1.00
C240   C     0.68645   0.31302   0.10858   0.00000  Uiso   1.00
C241   C     0.68654   0.31299   0.14194   0.00000  Uiso   1.00
C242   C     0.67203   0.33672   0.16000   0.00000  Uiso   1.00
C243   C     0.65742   0.36062   0.14239   0.00000  Uiso   1.00
C244   C     0.65722   0.36054   0.10909   0.00000  Uiso   1.00
C245   C     0.67166   0.33663   0.09101   0.00000  Uiso   1.00
Si246  Si    0.67115   0.33678   0.20569   0.00000  Uiso   1.00
C247   C     0.74573   0.48264   0.24472   0.00000  Uiso   1.00
C248   C     0.71863   0.44806   0.26471   0.00000  Uiso   1.00
C249   C     0.69667   0.40575   0.25296   0.00000  Uiso   1.00
C250   C     0.70039   0.39553   0.22076   0.00000  Uiso   1.00
C251   C     0.72790   0.43079   0.20108   0.00000  Uiso   1.00
C252   C     0.75002   0.47324   0.21267   0.00000  Uiso   1.00
C253   C     0.69976   0.30798   0.22166   0.00000  Uiso   1.00
C254   C     0.67789   0.26478   0.23282   0.00000  Uiso   1.00
C255   C     0.69951   0.24423   0.24379   0.00000  Uiso   1.00
C256   C     0.74433   0.26595   0.24407   0.00000  Uiso   1.00
C257   C     0.76671   0.30889   0.23294   0.00000  Uiso   1.00
C258   C     0.74489   0.32925   0.22207   0.00000  Uiso   1.00
C259   C     0.60421   0.29792   0.25346   0.00000  Uiso   1.00
C260   C     0.56268   0.27783   0.26518   0.00000  Uiso   1.00
C261   C     0.52793   0.26577   0.24445   0.00000  Uiso   1.00
C262   C     0.53639   0.27437   0.21165   0.00000  Uiso   1.00
C263   C     0.57807   0.29476   0.20013   0.00000  Uiso   1.00
C264   C     0.61350   0.30747   0.22058   0.00000  Uiso   1.00
H265   H     0.75016   0.36655   0.00424   0.00000  Uiso   1.00
H266   H     0.65433   0.24658   0.04695   0.00000  Uiso   1.00
H267   H     0.69223   0.21029   0.02729   0.00000  Uiso   1.00
H268   H     0.78675   0.32960  -0.01672   0.00000  Uiso   1.00
H269   H     0.58144   0.28996   0.07831   0.00000  Uiso   1.00
H270   H     0.50808   0.25133   0.05831   0.00000  Uiso   1.00
H271   H     0.55478   0.27738   0.96113   0.00000  Uiso   1.00
H272   H     0.62823   0.31381  -0.01899   0.00000  Uiso   1.00
H273   H     0.69824   0.29420   0.09588   0.00000  Uiso   1.00
H274   H     0.69828   0.29405   0.15428   0.00000  Uiso   1.00
H275   H     0.64605   0.37977   0.15517   0.00000  Uiso   1.00
H276   H     0.64568   0.37964   0.09667   0.00000  Uiso   1.00
H277   H     0.71515   0.45426   0.28983   0.00000  Uiso   1.00
H278   H     0.67602   0.37986   0.26937   0.00000  Uiso   1.00
H279   H     0.73207   0.42494   0.17598   0.00000  Uiso   1.00
H280   H     0.77039   0.49949   0.19646   0.00000  Uiso   1.00
H281   H     0.64302   0.24677   0.23302   0.00000  Uiso   1.00
H282   H     0.68131   0.21110   0.25271   0.00000  Uiso   1.00
H283   H     0.80153   0.32633   0.23243   0.00000  Uiso   1.00
H284   H     0.76338   0.36268   0.21361   0.00000  Uiso   1.00
H285   H     0.63024   0.30643   0.27040   0.00000  Uiso   1.00
H286   H     0.55725   0.27195   0.29082   0.00000  Uiso   1.00
H287   H     0.51005   0.26451   0.19483   0.00000  Uiso   1.00
H288   H     0.58315   0.30078   0.17444   0.00000  Uiso   1.00
C289   C     0.26894   0.52776   0.25711   0.00000  Uiso   1.00
C290   C     0.31051   0.55715   0.24671   0.00000  Uiso   1.00
C291   C     0.33198   0.59969   0.25813   0.00000  Uiso   1.00
C292   C     0.31322   0.61506   0.28051   0.00000  Uiso   1.00
C293   C     0.27151   0.58478   0.29096   0.00000  Uiso   1.00
C294   C     0.24983   0.54228   0.27958   0.00000  Uiso   1.00
H295   H     0.32643   0.54650   0.22977   0.00000  Uiso   1.00
H296   H     0.36425   0.62158   0.24944   0.00000  Uiso   1.00
H297   H     0.25563   0.59490   0.30845   0.00000  Uiso   1.00
H298   H     0.21740   0.52027   0.28783   0.00000  Uiso   1.00
C299   C     0.27256   0.67900   0.26142   0.00000  Uiso   1.00
C300   C     0.31096   0.70145   0.27905   0.00000  Uiso   1.00
C301   C     0.32679   0.74628   0.28439   0.00000  Uiso   1.00
C302   C     0.30557   0.76711   0.27319   0.00000  Uiso   1.00
C303   C     0.26727   0.74408   0.25587   0.00000  Uiso   1.00
C304   C     0.25121   0.69965   0.25008   0.00000  Uiso   1.00
Si305  Si    0.34046   0.67375   0.29535   0.00000  Uiso   1.00
C306   C     0.39814   0.70365   0.28060   0.00000  Uiso   1.00
C307   C     0.42952   0.69617   0.29441   0.00000  Uiso   1.00
C308   C     0.47113   0.71596   0.28287   0.00000  Uiso   1.00
C309   C     0.48368   0.74460   0.25684   0.00000  Uiso   1.00
C310   C     0.45306   0.75269   0.24292   0.00000  Uiso   1.00
C311   C     0.41143   0.73263   0.25450   0.00000  Uiso   1.00
C312   C     0.32970   0.70129   0.35938   0.00000  Uiso   1.00
C313   C     0.32953   0.70082   0.39272   0.00000  Uiso   1.00
C314   C     0.33872   0.67261   0.41018   0.00000  Uiso   1.00
C315   C     0.34816   0.64487   0.39191   0.00000  Uiso   1.00
C316   C     0.34825   0.64529   0.35859   0.00000  Uiso   1.00
C317   C     0.33910   0.67360   0.34112   0.00000  Uiso   1.00
Si318  Si    0.33853   0.67242   0.45589   0.00000  Uiso   1.00
C319   C     0.26303   0.52780   0.49565   0.00000  Uiso   1.00
C320   C     0.29043   0.56296   0.51537   0.00000  Uiso   1.00
C321   C     0.31244   0.60487   0.50322   0.00000  Uiso   1.00
C322   C     0.30831   0.61399   0.47092   0.00000  Uiso   1.00
C323   C     0.28042   0.57821   0.45156   0.00000  Uiso   1.00
C324   C     0.25838   0.53617   0.46353   0.00000  Uiso   1.00
C325   C     0.31032   0.70233   0.47087   0.00000  Uiso   1.00
C326   C     0.33197   0.74697   0.47892   0.00000  Uiso   1.00
C327   C     0.31033   0.76781   0.48950   0.00000  Uiso   1.00
C328   C     0.26560   0.74516   0.49215   0.00000  Uiso   1.00
C329   C     0.24343   0.70095   0.48365   0.00000  Uiso   1.00
C330   C     0.26529   0.68018   0.47346   0.00000  Uiso   1.00
C331   C     0.40707   0.72155   0.50185   0.00000  Uiso   1.00
C332   C     0.44866   0.74132   0.51353   0.00000  Uiso   1.00
C333   C     0.48116   0.73992   0.49603   0.00000  Uiso   1.00
C334   C     0.47024   0.71773   0.46651   0.00000  Uiso   1.00
C335   C     0.42872   0.69854   0.45477   0.00000  Uiso   1.00
C336   C     0.39565   0.69988   0.47190   0.00000  Uiso   1.00
H337   H     0.25901   0.64444   0.25631   0.00000  Uiso   1.00
H338   H     0.35658   0.76538   0.29764   0.00000  Uiso   1.00
H339   H     0.31858   0.80155   0.27834   0.00000  Uiso   1.00
H340   H     0.22200   0.68112   0.23616   0.00000  Uiso   1.00
H341   H     0.42109   0.67415   0.31471   0.00000  Uiso   1.00
H342   H     0.49401   0.70860   0.29396   0.00000  Uiso   1.00
H343   H     0.46199   0.77533   0.22304   0.00000  Uiso   1.00
H344   H     0.38861   0.73976   0.24295   0.00000  Uiso   1.00
H345   H     0.32206   0.72365   0.34726   0.00000  Uiso   1.00
H346   H     0.32187   0.72289   0.40556   0.00000  Uiso   1.00
H347   H     0.35539   0.62223   0.40410   0.00000  Uiso   1.00
H348   H     0.35534   0.62281   0.34572   0.00000  Uiso   1.00
H349   H     0.29415   0.55752   0.54053   0.00000  Uiso   1.00
H350   H     0.33351   0.63139   0.51927   0.00000  Uiso   1.00
H351   H     0.27591   0.58331   0.42644   0.00000  Uiso   1.00
H352   H     0.23779   0.50939   0.44757   0.00000  Uiso   1.00
H353   H     0.36671   0.76593   0.47700   0.00000  Uiso   1.00
H354   H     0.32855   0.80203   0.49625   0.00000  Uiso   1.00
H355   H     0.20864   0.68263   0.48474   0.00000  Uiso   1.00
H356   H     0.24687   0.64570   0.46729   0.00000  Uiso   1.00
H357   H     0.38281   0.72326   0.51638   0.00000  Uiso   1.00
H358   H     0.45604   0.75867   0.53634   0.00000  Uiso   1.00
H359   H     0.49442   0.71513   0.45260   0.00000  Uiso   1.00
H360   H     0.42182   0.68204   0.43156   0.00000  Uiso   1.00
C361   C     0.23985   0.98297   0.00820   0.00000  Uiso   1.00
C362   C     0.19810   0.95357  -0.00200   0.00000  Uiso   1.00
C363   C     0.17671   0.91112   0.00921   0.00000  Uiso   1.00
C364   C     0.19582   0.89571   0.03097   0.00000  Uiso   1.00
C365   C     0.23763   0.92607   0.04138   0.00000  Uiso   1.00
C366   C     0.25915   0.96858   0.03037   0.00000  Uiso   1.00
H367   H     0.18199   0.96413   0.98136   0.00000  Uiso   1.00
H368   H     0.14423   0.88936   0.00074   0.00000  Uiso   1.00
H369   H     0.25372   0.91599   0.05853   0.00000  Uiso   1.00
H370   H     0.29163   0.99065   0.03861   0.00000  Uiso   1.00
C371   C     0.23694   0.83214   0.00948   0.00000  Uiso   1.00
C372   C     0.19920   0.81006   0.02778   0.00000  Uiso   1.00
C373   C     0.18372   0.76542   0.03328   0.00000  Uiso   1.00
C374   C     0.20488   0.74451   0.02183   0.00000  Uiso   1.00
C375   C     0.24263   0.76717   0.00390   0.00000  Uiso   1.00
C376   C     0.25808   0.81132  -0.00228   0.00000  Uiso   1.00
Si377  Si    0.16951   0.83710   0.04535   0.00000  Uiso   1.00
C378   C     0.11147   0.80586   0.03148   0.00000  Uiso   1.00
C379   C     0.07613   0.78737   0.05245   0.00000  Uiso   1.00
C380   C     0.03429   0.76568   0.04116   0.00000  Uiso   1.00
C381   C     0.02557   0.76170   0.00814   0.00000  Uiso   1.00
C382   C     0.06036   0.77953  -0.01312   0.00000  Uiso   1.00
C383   C     0.10207   0.80072  -0.00169   0.00000  Uiso   1.00
C384   C     0.18645   0.81302   0.10858   0.00000  Uiso   1.00
C385   C     0.18654   0.81299   0.14194   0.00000  Uiso   1.00
C386   C     0.17203   0.83672   0.16000   0.00000  Uiso   1.00
C387   C     0.15742   0.86062   0.14239   0.00000  Uiso   1.00
C388   C     0.15722   0.86054   0.10909   0.00000  Uiso   1.00
C389   C     0.17166   0.83663   0.09101   0.00000  Uiso   1.00
Si390  Si    0.17115   0.83678   0.20569   0.00000  Uiso   1.00
C391   C     0.24573   0.98264   0.24472   0.00000  Uiso   1.00
C392   C     0.21863   0.94806   0.26471   0.00000  Uiso   1.00
C393   C     0.19667   0.90575   0.25296   0.00000  Uiso   1.00
C394   C     0.20039   0.89553   0.22076   0.00000  Uiso   1.00
C395   C     0.22790   0.93079   0.20108   0.00000  Uiso   1.00
C396   C     0.25002   0.97324   0.21267   0.00000  Uiso   1.00
C397   C     0.19976   0.80798   0.22166   0.00000  Uiso   1.00
C398   C     0.17789   0.76478   0.23282   0.00000  Uiso   1.00
C399   C     0.19951   0.74423   0.24379   0.00000  Uiso   1.00
C400   C     0.24433   0.76595   0.24407   0.00000  Uiso   1.00
C401   C     0.26671   0.80889   0.23294   0.00000  Uiso   1.00
C402   C     0.24489   0.82925   0.22207   0.00000  Uiso   1.00
C403   C     0.10421   0.79792   0.25346   0.00000  Uiso   1.00
C404   C     0.06268   0.77783   0.26518   0.00000  Uiso   1.00
C405   C     0.02793   0.76577   0.24445   0.00000  Uiso   1.00
C406   C     0.03639   0.77437   0.21165   0.00000  Uiso   1.00
C407   C     0.07807   0.79476   0.20013   0.00000  Uiso   1.00
C408   C     0.11350   0.80747   0.22058   0.00000  Uiso   1.00
H409   H     0.25016   0.86655   0.00424   0.00000  Uiso   1.00
H410   H     0.15433   0.74658   0.04695   0.00000  Uiso   1.00
H411   H     0.19223   0.71029   0.02729   0.00000  Uiso   1.00
H412   H     0.28675   0.82960  -0.01672   0.00000  Uiso   1.00
H413   H     0.08145   0.78996   0.07831   0.00000  Uiso   1.00
H414   H     1.00808   0.75133   0.05831   0.00000  Uiso   1.00
H415   H     0.05478   0.77738   0.96113   0.00000  Uiso   1.00
H416   H     0.12823   0.81381  -0.01899   0.00000  Uiso   1.00
H417   H     0.19824   0.79420   0.09588   0.00000  Uiso   1.00
H418   H     0.19828   0.79405   0.15428   0.00000  Uiso   1.00
H419   H     0.14605   0.87977   0.15517   0.00000  Uiso   1.00
H420   H     0.14568   0.87964   0.09667   0.00000  Uiso   1.00
H421   H     0.21515   0.95426   0.28983   0.00000  Uiso   1.00
H422   H     0.17602   0.87987   0.26937   0.00000  Uiso   1.00
H423   H     0.23207   0.92494   0.17598   0.00000  Uiso   1.00
H424   H     0.27039   0.99949   0.19646   0.00000  Uiso   1.00
H425   H     0.14302   0.74677   0.23302   0.00000  Uiso   1.00
H426   H     0.18131   0.71110   0.25271   0.00000  Uiso   1.00
H427   H     0.30153   0.82633   0.23243   0.00000  Uiso   1.00
H428   H     0.26338   0.86268   0.21361   0.00000  Uiso   1.00
H429   H     0.13024   0.80643   0.27040   0.00000  Uiso   1.00
H430   H     0.05725   0.77195   0.29082   0.00000  Uiso   1.00
H431   H     0.01005   0.76451   0.19483   0.00000  Uiso   1.00
H432   H     0.08315   0.80078   0.17444   0.00000  Uiso   1.00
C433   C     0.76894   0.52776   0.25711   0.00000  Uiso   1.00
C434   C     0.81051   0.55715   0.24671   0.00000  Uiso   1.00
C435   C     0.83198   0.59969   0.25813   0.00000  Uiso   1.00
C436   C     0.81322   0.61506   0.28051   0.00000  Uiso   1.00
C437   C     0.77151   0.58478   0.29096   0.00000  Uiso   1.00
C438   C     0.74983   0.54228   0.27958   0.00000  Uiso   1.00
H439   H     0.82643   0.54650   0.22977   0.00000  Uiso   1.00
H440   H     0.86425   0.62158   0.24944   0.00000  Uiso   1.00
H441   H     0.75564   0.59490   0.30845   0.00000  Uiso   1.00
H442   H     0.71740   0.52027   0.28783   0.00000  Uiso   1.00
C443   C     0.77256   0.67900   0.26142   0.00000  Uiso   1.00
C444   C     0.81096   0.70145   0.27905   0.00000  Uiso   1.00
C445   C     0.82679   0.74628   0.28439   0.00000  Uiso   1.00
C446   C     0.80557   0.76711   0.27319   0.00000  Uiso   1.00
C447   C     0.76727   0.74408   0.25587   0.00000  Uiso   1.00
C448   C     0.75121   0.69965   0.25008   0.00000  Uiso   1.00
Si449  Si    0.84046   0.67375   0.29535   0.00000  Uiso   1.00
C450   C     0.89814   0.70365   0.28060   0.00000  Uiso   1.00
C451   C     0.92952   0.69617   0.29441   0.00000  Uiso   1.00
C452   C     0.97113   0.71596   0.28287   0.00000  Uiso   1.00
C453   C     0.98368   0.74460   0.25684   0.00000  Uiso   1.00
C454   C     0.95306   0.75269   0.24292   0.00000  Uiso   1.00
C455   C     0.91144   0.73263   0.25450   0.00000  Uiso   1.00
C456   C     0.82970   0.70129   0.35938   0.00000  Uiso   1.00
C457   C     0.82953   0.70082   0.39272   0.00000  Uiso   1.00
C458   C     0.83872   0.67261   0.41018   0.00000  Uiso   1.00
C459   C     0.84816   0.64487   0.39191   0.00000  Uiso   1.00
C460   C     0.84825   0.64529   0.35859   0.00000  Uiso   1.00
C461   C     0.83910   0.67360   0.34113   0.00000  Uiso   1.00
Si462  Si    0.83853   0.67242   0.45589   0.00000  Uiso   1.00
C463   C     0.76303   0.52780   0.49565   0.00000  Uiso   1.00
C464   C     0.79043   0.56296   0.51537   0.00000  Uiso   1.00
C465   C     0.81244   0.60487   0.50322   0.00000  Uiso   1.00
C466   C     0.80831   0.61399   0.47092   0.00000  Uiso   1.00
C467   C     0.78042   0.57821   0.45156   0.00000  Uiso   1.00
C468   C     0.75838   0.53617   0.46353   0.00000  Uiso   1.00
C469   C     0.81032   0.70233   0.47087   0.00000  Uiso   1.00
C470   C     0.83197   0.74697   0.47892   0.00000  Uiso   1.00
C471   C     0.81033   0.76781   0.48950   0.00000  Uiso   1.00
C472   C     0.76561   0.74516   0.49215   0.00000  Uiso   1.00
C473   C     0.74343   0.70095   0.48365   0.00000  Uiso   1.00
C474   C     0.76529   0.68018   0.47346   0.00000  Uiso   1.00
C475   C     0.90707   0.72155   0.50185   0.00000  Uiso   1.00
C476   C     0.94866   0.74132   0.51353   0.00000  Uiso   1.00
C477   C     0.98116   0.73992   0.49602   0.00000  Uiso   1.00
C478   C     0.97024   0.71773   0.46651   0.00000  Uiso   1.00
C479   C     0.92872   0.69854   0.45477   0.00000  Uiso   1.00
C480   C     0.89565   0.69988   0.47190   0.00000  Uiso   1.00
H481   H     0.75901   0.64444   0.25631   0.00000  Uiso   1.00
H482   H     0.85658   0.76538   0.29764   0.00000  Uiso   1.00
H483   H     0.81858   0.80155   0.27834   0.00000  Uiso   1.00
H484   H     0.72200   0.68112   0.23616   0.00000  Uiso   1.00
H485   H     0.92109   0.67415   0.31471   0.00000  Uiso   1.00
H486   H     0.99401   0.70860   0.29396   0.00000  Uiso   1.00
H487   H     0.96200   0.77533   0.22304   0.00000  Uiso   1.00
H488   H     0.88861   0.73976   0.24295   0.00000  Uiso   1.00
H489   H     0.82206   0.72365   0.34726   0.00000  Uiso   1.00
H490   H     0.82187   0.72289   0.40556   0.00000  Uiso   1.00
H491   H     0.85539   0.62223   0.40410   0.00000  Uiso   1.00
H492   H     0.85534   0.62281   0.34572   0.00000  Uiso   1.00
H493   H     0.79415   0.55752   0.54053   0.00000  Uiso   1.00
H494   H     0.83351   0.63139   0.51927   0.00000  Uiso   1.00
H495   H     0.77591   0.58331   0.42644   0.00000  Uiso   1.00
H496   H     0.73779   0.50939   0.44757   0.00000  Uiso   1.00
H497   H     0.86671   0.76593   0.47700   0.00000  Uiso   1.00
H498   H     0.82855   0.80203   0.49625   0.00000  Uiso   1.00
H499   H     0.70864   0.68263   0.48474   0.00000  Uiso   1.00
H500   H     0.74687   0.64570   0.46729   0.00000  Uiso   1.00
H501   H     0.88281   0.72326   0.51638   0.00000  Uiso   1.00
H502   H     0.95604   0.75867   0.53634   0.00000  Uiso   1.00
H503   H    -0.00558   0.71513   0.45260   0.00000  Uiso   1.00
H504   H     0.92182   0.68204   0.43156   0.00000  Uiso   1.00
C505   C     0.73985   0.98297   0.00820   0.00000  Uiso   1.00
C506   C     0.69810   0.95358  -0.00200   0.00000  Uiso   1.00
C507   C     0.67671   0.91112   0.00921   0.00000  Uiso   1.00
C508   C     0.69581   0.89571   0.03098   0.00000  Uiso   1.00
C509   C     0.73763   0.92607   0.04138   0.00000  Uiso   1.00
C510   C     0.75915   0.96858   0.03037   0.00000  Uiso   1.00
H511   H     0.68199   0.96413   0.98136   0.00000  Uiso   1.00
H512   H     0.64423   0.88936   0.00074   0.00000  Uiso   1.00
H513   H     0.75372   0.91599   0.05853   0.00000  Uiso   1.00
H514   H     0.79163   0.99065   0.03861   0.00000  Uiso   1.00
C515   C     0.73694   0.83214   0.00948   0.00000  Uiso   1.00
C516   C     0.69920   0.81006   0.02778   0.00000  Uiso   1.00
C517   C     0.68373   0.76542   0.03328   0.00000  Uiso   1.00
C518   C     0.70488   0.74451   0.02183   0.00000  Uiso   1.00
C519   C     0.74263   0.76717   0.00390   0.00000  Uiso   1.00
C520   C     0.75808   0.81132  -0.00228   0.00000  Uiso   1.00
Si521  Si    0.66951   0.83710   0.04535   0.00000  Uiso   1.00
C522   C     0.61147   0.80586   0.03148   0.00000  Uiso   1.00
C523   C     0.57613   0.78737   0.05245   0.00000  Uiso   1.00
C524   C     0.53429   0.76568   0.04116   0.00000  Uiso   1.00
C525   C     0.52557   0.76170   0.00814   0.00000  Uiso   1.00
C526   C     0.56036   0.77953  -0.01312   0.00000  Uiso   1.00
C527   C     0.60207   0.80072  -0.00169   0.00000  Uiso   1.00
C528   C     0.68645   0.81302   0.10858   0.00000  Uiso   1.00
C529   C     0.68654   0.81299   0.14194   0.00000  Uiso   1.00
C530   C     0.67203   0.83672   0.16000   0.00000  Uiso   1.00
C531   C     0.65742   0.86062   0.14239   0.00000  Uiso   1.00
C532   C     0.65722   0.86054   0.10909   0.00000  Uiso   1.00
C533   C     0.67166   0.83663   0.09101   0.00000  Uiso   1.00
Si534  Si    0.67115   0.83678   0.20569   0.00000  Uiso   1.00
C535   C     0.74573   0.98264   0.24472   0.00000  Uiso   1.00
C536   C     0.71863   0.94806   0.26471   0.00000  Uiso   1.00
C537   C     0.69667   0.90575   0.25296   0.00000  Uiso   1.00
C538   C     0.70039   0.89553   0.22076   0.00000  Uiso   1.00
C539   C     0.72790   0.93079   0.20108   0.00000  Uiso   1.00
C540   C     0.75002   0.97324   0.21267   0.00000  Uiso   1.00
C541   C     0.69976   0.80798   0.22166   0.00000  Uiso   1.00
C542   C     0.67789   0.76478   0.23282   0.00000  Uiso   1.00
C543   C     0.69951   0.74423   0.24379   0.00000  Uiso   1.00
C544   C     0.74433   0.76595   0.24407   0.00000  Uiso   1.00
C545   C     0.76671   0.80889   0.23294   0.00000  Uiso   1.00
C546   C     0.74489   0.82925   0.22207   0.00000  Uiso   1.00
C547   C     0.60421   0.79792   0.25347   0.00000  Uiso   1.00
C548   C     0.56268   0.77783   0.26518   0.00000  Uiso   1.00
C549   C     0.52793   0.76577   0.24445   0.00000  Uiso   1.00
C550   C     0.53639   0.77437   0.21165   0.00000  Uiso   1.00
C551   C     0.57807   0.79476   0.20013   0.00000  Uiso   1.00
C552   C     0.61350   0.80747   0.22058   0.00000  Uiso   1.00
H553   H     0.75016   0.86655   0.00424   0.00000  Uiso   1.00
H554   H     0.65433   0.74658   0.04696   0.00000  Uiso   1.00
H555   H     0.69223   0.71029   0.02729   0.00000  Uiso   1.00
H556   H     0.78675   0.82960  -0.01672   0.00000  Uiso   1.00
H557   H     0.58144   0.78996   0.07831   0.00000  Uiso   1.00
H558   H     0.50808   0.75133   0.05831   0.00000  Uiso   1.00
H559   H     0.55478   0.77738   0.96113   0.00000  Uiso   1.00
H560   H     0.62823   0.81381  -0.01899   0.00000  Uiso   1.00
H561   H     0.69824   0.79420   0.09588   0.00000  Uiso   1.00
H562   H     0.69828   0.79405   0.15428   0.00000  Uiso   1.00
H563   H     0.64605   0.87977   0.15517   0.00000  Uiso   1.00
H564   H     0.64568   0.87964   0.09667   0.00000  Uiso   1.00
H565   H     0.71515   0.95426   0.28983   0.00000  Uiso   1.00
H566   H     0.67602   0.87987   0.26937   0.00000  Uiso   1.00
H567   H     0.73207   0.92494   0.17598   0.00000  Uiso   1.00
H568   H     0.77039   0.99948   0.19646   0.00000  Uiso   1.00
H569   H     0.64302   0.74677   0.23302   0.00000  Uiso   1.00
H570   H     0.68131   0.71110   0.25271   0.00000  Uiso   1.00
H571   H     0.80153   0.82633   0.23243   0.00000  Uiso   1.00
H572   H     0.76338   0.86268   0.21361   0.00000  Uiso   1.00
H573   H     0.63024   0.80643   0.27040   0.00000  Uiso   1.00
H574   H     0.55725   0.77195   0.29082   0.00000  Uiso   1.00
H575   H     0.51005   0.76451   0.19483   0.00000  Uiso   1.00
H576   H     0.58315   0.80078   0.17444   0.00000  Uiso   1.00
C577   C     0.26894   0.02776   0.75711   0.00000  Uiso   1.00
C578   C     0.31051   0.05715   0.74671   0.00000  Uiso   1.00
C579   C     0.33198   0.09969   0.75813   0.00000  Uiso   1.00
C580   C     0.31322   0.11506   0.78051   0.00000  Uiso   1.00
C581   C     0.27151   0.08478   0.79096   0.00000  Uiso   1.00
C582   C     0.24983   0.04228   0.77958   0.00000  Uiso   1.00
H583   H     0.32643   0.04650   0.72977   0.00000  Uiso   1.00
H584   H     0.36425   0.12158   0.74944   0.00000  Uiso   1.00
H585   H     0.25563   0.09490   0.80845   0.00000  Uiso   1.00
H586   H     0.21740   0.02027   0.78783   0.00000  Uiso   1.00
C587   C     0.27256   0.17900   0.76142   0.00000  Uiso   1.00
C588   C     0.31096   0.20145   0.77905   0.00000  Uiso   1.00
C589   C     0.32679   0.24628   0.78439   0.00000  Uiso   1.00
C590   C     0.30557   0.26711   0.77319   0.00000  Uiso   1.00
C591   C     0.26727   0.24408   0.75587   0.00000  Uiso   1.00
C592   C     0.25121   0.19965   0.75008   0.00000  Uiso   1.00
Si593  Si    0.34046   0.17375   0.79535   0.00000  Uiso   1.00
C594   C     0.39814   0.20365   0.78060   0.00000  Uiso   1.00
C595   C     0.42952   0.19617   0.79441   0.00000  Uiso   1.00
C596   C     0.47113   0.21596   0.78288   0.00000  Uiso   1.00
C597   C     0.48368   0.24460   0.75684   0.00000  Uiso   1.00
C598   C     0.45306   0.25269   0.74292   0.00000  Uiso   1.00
C599   C     0.41143   0.23263   0.75450   0.00000  Uiso   1.00
C600   C     0.32970   0.20129   0.85938   0.00000  Uiso   1.00
C601   C     0.32953   0.20082   0.89272   0.00000  Uiso   1.00
C602   C     0.33872   0.17261   0.91018   0.00000  Uiso   1.00
C603   C     0.34816   0.14487   0.89191   0.00000  Uiso   1.00
C604   C     0.34825   0.14529   0.85859   0.00000  Uiso   1.00
C605   C     0.33910   0.17360   0.84113   0.00000  Uiso   1.00
Si606  Si    0.33853   0.17242   0.95589   0.00000  Uiso   1.00
C607   C     0.26303   0.02780   0.99565   0.00000  Uiso   1.00
C608   C     0.29043   0.06296   1.01537   0.00000  Uiso   1.00
C609   C     0.31244   0.10487   1.00322   0.00000  Uiso   1.00
C610   C     0.30831   0.11399   0.97092   0.00000  Uiso   1.00
C611   C     0.28042   0.07821   0.95156   0.00000  Uiso   1.00
C612   C     0.25838   0.03617   0.96353   0.00000  Uiso   1.00
C613   C     0.31032   0.20233   0.97087   0.00000  Uiso   1.00
C614   C     0.33197   0.24697   0.97892   0.00000  Uiso   1.00
C615   C     0.31033   0.26781   0.98950   0.00000  Uiso   1.00
C616   C     0.26560   0.24516   0.99215   0.00000  Uiso   1.00
C617   C     0.24343   0.20095   0.98365   0.00000  Uiso   1.00
C618   C     0.26529   0.18018   0.97346   0.00000  Uiso   1.00
C619   C     0.40707   0.22155   1.00185   0.00000  Uiso   1.00
C620   C     0.44866   0.24132   1.01353   0.00000  Uiso   1.00
C621   C     0.48116   0.23992   0.99603   0.00000  Uiso   1.00
C622   C     0.47024   0.21773   0.96651   0.00000  Uiso   1.00
C623   C     0.42872   0.19854   0.95477   0.00000  Uiso   1.00
C624   C     0.39565   0.19988   0.97190   0.00000  Uiso   1.00
H625   H     0.25901   0.14444   0.75631   0.00000  Uiso   1.00
H626   H     0.35658   0.26538   0.79764   0.00000  Uiso   1.00
H627   H     0.31858   0.30155   0.77834   0.00000  Uiso   1.00
H628   H     0.22200   0.18112   0.73616   0.00000  Uiso   1.00
H629   H     0.42109   0.17415   0.81471   0.00000  Uiso   1.00
H630   H     0.49401   0.20860   0.79396   0.00000  Uiso   1.00
H631   H     0.46199   0.27533   0.72304   0.00000  Uiso   1.00
H632   H     0.38861   0.23976   0.74295   0.00000  Uiso   1.00
H633   H     0.32206   0.22365   0.84727   0.00000  Uiso   1.00
H634   H     0.32187   0.22289   0.90556   0.00000  Uiso   1.00
H635   H     0.35539   0.12223   0.90410   0.00000  Uiso   1.00
H636   H     0.35534   0.12281   0.84572   0.00000  Uiso   1.00
H637   H     0.29415   0.05752   0.04052   0.00000  Uiso   1.00
H638   H     0.33351   0.13139   1.01927   0.00000  Uiso   1.00
H639   H     0.27591   0.08331   0.92644   0.00000  Uiso   1.00
H640   H     0.23779   1.00939   0.94757   0.00000  Uiso   1.00
H641   H     0.36671   0.26593   0.97700   0.00000  Uiso   1.00
H642   H     0.32855   0.30203   0.99625   0.00000  Uiso   1.00
H643   H     0.20864   0.18263   0.98474   0.00000  Uiso   1.00
H644   H     0.24687   0.14570   0.96729   0.00000  Uiso   1.00
H645   H     0.38281   0.22326   1.01638   0.00000  Uiso   1.00
H646   H     0.45604   0.25867   0.03634   0.00000  Uiso   1.00
H647   H     0.49442   0.21513   0.95260   0.00000  Uiso   1.00
H648   H     0.42182   0.18204   0.93156   0.00000  Uiso   1.00
C649   C     0.23985   0.48297   0.50820   0.00000  Uiso   1.00
C650   C     0.19810   0.45358   0.49800   0.00000  Uiso   1.00
C651   C     0.17671   0.41112   0.50921   0.00000  Uiso   1.00
C652   C     0.19582   0.39571   0.53098   0.00000  Uiso   1.00
C653   C     0.23763   0.42607   0.54138   0.00000  Uiso   1.00
C654   C     0.25915   0.46858   0.53037   0.00000  Uiso   1.00
H655   H     0.18199   0.46413   0.48136   0.00000  Uiso   1.00
H656   H     0.14423   0.38936   0.50074   0.00000  Uiso   1.00
H657   H     0.25372   0.41599   0.55853   0.00000  Uiso   1.00
H658   H     0.29163   0.49065   0.53861   0.00000  Uiso   1.00
C659   C     0.23694   0.33214   0.50948   0.00000  Uiso   1.00
C660   C     0.19920   0.31006   0.52778   0.00000  Uiso   1.00
C661   C     0.18372   0.26542   0.53328   0.00000  Uiso   1.00
C662   C     0.20488   0.24451   0.52183   0.00000  Uiso   1.00
C663   C     0.24263   0.26717   0.50390   0.00000  Uiso   1.00
C664   C     0.25808   0.31132   0.49772   0.00000  Uiso   1.00
Si665  Si    0.16951   0.33710   0.54535   0.00000  Uiso   1.00
C666   C     0.11147   0.30586   0.53148   0.00000  Uiso   1.00
C667   C     0.07613   0.28737   0.55245   0.00000  Uiso   1.00
C668   C     0.03429   0.26568   0.54116   0.00000  Uiso   1.00
C669   C     0.02557   0.26170   0.50814   0.00000  Uiso   1.00
C670   C     0.06036   0.27953   0.48688   0.00000  Uiso   1.00
C671   C     0.10207   0.30072   0.49831   0.00000  Uiso   1.00
C672   C     0.18645   0.31302   0.60858   0.00000  Uiso   1.00
C673   C     0.18654   0.31299   0.64194   0.00000  Uiso   1.00
C674   C     0.17203   0.33672   0.66000   0.00000  Uiso   1.00
C675   C     0.15742   0.36062   0.64239   0.00000  Uiso   1.00
C676   C     0.15722   0.36054   0.60909   0.00000  Uiso   1.00
C677   C     0.17166   0.33663   0.59101   0.00000  Uiso   1.00
Si678  Si    0.17115   0.33678   0.70569   0.00000  Uiso   1.00
C679   C     0.24573   0.48264   0.74471   0.00000  Uiso   1.00
C680   C     0.21863   0.44806   0.76471   0.00000  Uiso   1.00
C681   C     0.19667   0.40575   0.75296   0.00000  Uiso   1.00
C682   C     0.20039   0.39553   0.72076   0.00000  Uiso   1.00
C683   C     0.22790   0.43079   0.70108   0.00000  Uiso   1.00
C684   C     0.25002   0.47324   0.71267   0.00000  Uiso   1.00
C685   C     0.19976   0.30798   0.72166   0.00000  Uiso   1.00
C686   C     0.17789   0.26478   0.73282   0.00000  Uiso   1.00
C687   C     0.19951   0.24423   0.74379   0.00000  Uiso   1.00
C688   C     0.24433   0.26595   0.74407   0.00000  Uiso   1.00
C689   C     0.26671   0.30889   0.73294   0.00000  Uiso   1.00
C690   C     0.24489   0.32925   0.72207   0.00000  Uiso   1.00
C691   C     0.10421   0.29792   0.75347   0.00000  Uiso   1.00
C692   C     0.06268   0.27783   0.76518   0.00000  Uiso   1.00
C693   C     0.02793   0.26577   0.74445   0.00000  Uiso   1.00
C694   C     0.03639   0.27437   0.71165   0.00000  Uiso   1.00
C695   C     0.07807   0.29476   0.70013   0.00000  Uiso   1.00
C696   C     0.11350   0.30747   0.72058   0.00000  Uiso   1.00
H697   H     0.25016   0.36655   0.50424   0.00000  Uiso   1.00
H698   H     0.15433   0.24658   0.54695   0.00000  Uiso   1.00
H699   H     0.19223   0.21029   0.52729   0.00000  Uiso   1.00
H700   H     0.28675   0.32960   0.48328   0.00000  Uiso   1.00
H701   H     0.08145   0.28996   0.57831   0.00000  Uiso   1.00
H702   H     1.00808   0.25133   0.55831   0.00000  Uiso   1.00
H703   H     0.05478   0.27738   0.46113   0.00000  Uiso   1.00
H704   H     0.12823   0.31381   0.48101   0.00000  Uiso   1.00
H705   H     0.19824   0.29420   0.59588   0.00000  Uiso   1.00
H706   H     0.19828   0.29405   0.65428   0.00000  Uiso   1.00
H707   H     0.14605   0.37977   0.65517   0.00000  Uiso   1.00
H708   H     0.14568   0.37964   0.59667   0.00000  Uiso   1.00
H709   H     0.21515   0.45426   0.78983   0.00000  Uiso   1.00
H710   H     0.17602   0.37986   0.76937   0.00000  Uiso   1.00
H711   H     0.23207   0.42494   0.67598   0.00000  Uiso   1.00
H712   H     0.27039   0.49949   0.69646   0.00000  Uiso   1.00
H713   H     0.14302   0.24677   0.73302   0.00000  Uiso   1.00
H714   H     0.18131   0.21110   0.75271   0.00000  Uiso   1.00
H715   H     0.30153   0.32633   0.73243   0.00000  Uiso   1.00
H716   H     0.26338   0.36268   0.71361   0.00000  Uiso   1.00
H717   H     0.13024   0.30643   0.77040   0.00000  Uiso   1.00
H718   H     0.05725   0.27195   0.79082   0.00000  Uiso   1.00
H719   H     0.01005   0.26451   0.69483   0.00000  Uiso   1.00
H720   H     0.08315   0.30078   0.67444   0.00000  Uiso   1.00
C721   C     0.76894   0.02776   0.75711   0.00000  Uiso   1.00
C722   C     0.81051   0.05715   0.74671   0.00000  Uiso   1.00
C723   C     0.83198   0.09969   0.75813   0.00000  Uiso   1.00
C724   C     0.81322   0.11506   0.78051   0.00000  Uiso   1.00
C725   C     0.77151   0.08478   0.79096   0.00000  Uiso   1.00
C726   C     0.74983   0.04228   0.77958   0.00000  Uiso   1.00
H727   H     0.82643   0.04650   0.72977   0.00000  Uiso   1.00
H728   H     0.86425   0.12158   0.74944   0.00000  Uiso   1.00
H729   H     0.75564   0.09490   0.80845   0.00000  Uiso   1.00
H730   H     0.71740   0.02027   0.78783   0.00000  Uiso   1.00
C731   C     0.77256   0.17900   0.76142   0.00000  Uiso   1.00
C732   C     0.81096   0.20145   0.77905   0.00000  Uiso   1.00
C733   C     0.82679   0.24628   0.78439   0.00000  Uiso   1.00
C734   C     0.80557   0.26711   0.77319   0.00000  Uiso   1.00
C735   C     0.76727   0.24408   0.75587   0.00000  Uiso   1.00
C736   C     0.75121   0.19965   0.75008   0.00000  Uiso   1.00
Si737  Si    0.84046   0.17375   0.79535   0.00000  Uiso   1.00
C738   C     0.89814   0.20365   0.78060   0.00000  Uiso   1.00
C739   C     0.92952   0.19617   0.79441   0.00000  Uiso   1.00
C740   C     0.97113   0.21596   0.78288   0.00000  Uiso   1.00
C741   C     0.98368   0.24460   0.75684   0.00000  Uiso   1.00
C742   C     0.95306   0.25269   0.74292   0.00000  Uiso   1.00
C743   C     0.91144   0.23263   0.75450   0.00000  Uiso   1.00
C744   C     0.82970   0.20129   0.85938   0.00000  Uiso   1.00
C745   C     0.82953   0.20082   0.89272   0.00000  Uiso   1.00
C746   C     0.83872   0.17261   0.91018   0.00000  Uiso   1.00
C747   C     0.84816   0.14487   0.89191   0.00000  Uiso   1.00
C748   C     0.84825   0.14529   0.85859   0.00000  Uiso   1.00
C749   C     0.83910   0.17360   0.84113   0.00000  Uiso   1.00
Si750  Si    0.83853   0.17242   0.95589   0.00000  Uiso   1.00
C751   C     0.76303   0.02780   0.99565   0.00000  Uiso   1.00
C752   C     0.79043   0.06296   1.01537   0.00000  Uiso   1.00
C753   C     0.81244   0.10487   1.00322   0.00000  Uiso   1.00
C754   C     0.80831   0.11399   0.97092   0.00000  Uiso   1.00
C755   C     0.78042   0.07821   0.95156   0.00000  Uiso   1.00
C756   C     0.75838   0.03617   0.96353   0.00000  Uiso   1.00
C757   C     0.81032   0.20233   0.97087   0.00000  Uiso   1.00
C758   C     0.83197   0.24697   0.97892   0.00000  Uiso   1.00
C759   C     0.81033   0.26781   0.98950   0.00000  Uiso   1.00
C760   C     0.76561   0.24516   0.99215   0.00000  Uiso   1.00
C761   C     0.74343   0.20095   0.98365   0.00000  Uiso   1.00
C762   C     0.76529   0.18018   0.97346   0.00000  Uiso   1.00
C763   C     0.90707   0.22155   1.00185   0.00000  Uiso   1.00
C764   C     0.94866   0.24132   1.01353   0.00000  Uiso   1.00
C765   C     0.98116   0.23992   0.99603   0.00000  Uiso   1.00
C766   C     0.97024   0.21773   0.96651   0.00000  Uiso   1.00
C767   C     0.92872   0.19854   0.95477   0.00000  Uiso   1.00
C768   C     0.89565   0.19988   0.97190   0.00000  Uiso   1.00
H769   H     0.75901   0.14444   0.75631   0.00000  Uiso   1.00
H770   H     0.85658   0.26538   0.79764   0.00000  Uiso   1.00
H771   H     0.81858   0.30155   0.77834   0.00000  Uiso   1.00
H772   H     0.72200   0.18112   0.73616   0.00000  Uiso   1.00
H773   H     0.92109   0.17415   0.81471   0.00000  Uiso   1.00
H774   H     0.99401   0.20860   0.79396   0.00000  Uiso   1.00
H775   H     0.96200   0.27533   0.72304   0.00000  Uiso   1.00
H776   H     0.88861   0.23976   0.74295   0.00000  Uiso   1.00
H777   H     0.82206   0.22365   0.84727   0.00000  Uiso   1.00
H778   H     0.82187   0.22289   0.90556   0.00000  Uiso   1.00
H779   H     0.85539   0.12223   0.90410   0.00000  Uiso   1.00
H780   H     0.85534   0.12281   0.84572   0.00000  Uiso   1.00
H781   H     0.79415   0.05752   0.04053   0.00000  Uiso   1.00
H782   H     0.83351   0.13139   1.01927   0.00000  Uiso   1.00
H783   H     0.77591   0.08331   0.92644   0.00000  Uiso   1.00
H784   H     0.73779   1.00939   0.94757   0.00000  Uiso   1.00
H785   H     0.86671   0.26593   0.97700   0.00000  Uiso   1.00
H786   H     0.82855   0.30203   0.99625   0.00000  Uiso   1.00
H787   H     0.70864   0.18263   0.98474   0.00000  Uiso   1.00
H788   H     0.74687   0.14570   0.96729   0.00000  Uiso   1.00
H789   H     0.88281   0.22326   1.01638   0.00000  Uiso   1.00
H790   H     0.95604   0.25867   0.03634   0.00000  Uiso   1.00
H791   H    -0.00558   0.21513   0.95260   0.00000  Uiso   1.00
H792   H     0.92182   0.18204   0.93156   0.00000  Uiso   1.00
C793   C     0.73985   0.48297   0.50820   0.00000  Uiso   1.00
C794   C     0.69810   0.45358   0.49800   0.00000  Uiso   1.00
C795   C     0.67671   0.41112   0.50921   0.00000  Uiso   1.00
C796   C     0.69581   0.39571   0.53098   0.00000  Uiso   1.00
C797   C     0.73763   0.42607   0.54138   0.00000  Uiso   1.00
C798   C     0.75915   0.46858   0.53037   0.00000  Uiso   1.00
H799   H     0.68199   0.46413   0.48136   0.00000  Uiso   1.00
H800   H     0.64423   0.38936   0.50074   0.00000  Uiso   1.00
H801   H     0.75372   0.41599   0.55853   0.00000  Uiso   1.00
H802   H     0.79163   0.49065   0.53861   0.00000  Uiso   1.00
C803   C     0.73694   0.33214   0.50948   0.00000  Uiso   1.00
C804   C     0.69920   0.31006   0.52778   0.00000  Uiso   1.00
C805   C     0.68373   0.26542   0.53328   0.00000  Uiso   1.00
C806   C     0.70488   0.24451   0.52183   0.00000  Uiso   1.00
C807   C     0.74263   0.26717   0.50390   0.00000  Uiso   1.00
C808   C     0.75808   0.31132   0.49772   0.00000  Uiso   1.00
Si809  Si    0.66951   0.33710   0.54535   0.00000  Uiso   1.00
C810   C     0.61147   0.30586   0.53148   0.00000  Uiso   1.00
C811   C     0.57613   0.28737   0.55245   0.00000  Uiso   1.00
C812   C     0.53429   0.26568   0.54116   0.00000  Uiso   1.00
C813   C     0.52557   0.26170   0.50814   0.00000  Uiso   1.00
C814   C     0.56036   0.27953   0.48688   0.00000  Uiso   1.00
C815   C     0.60207   0.30072   0.49831   0.00000  Uiso   1.00
C816   C     0.68645   0.31302   0.60858   0.00000  Uiso   1.00
C817   C     0.68654   0.31299   0.64194   0.00000  Uiso   1.00
C818   C     0.67203   0.33672   0.66000   0.00000  Uiso   1.00
C819   C     0.65742   0.36062   0.64239   0.00000  Uiso   1.00
C820   C     0.65722   0.36054   0.60909   0.00000  Uiso   1.00
C821   C     0.67166   0.33663   0.59101   0.00000  Uiso   1.00
Si822  Si    0.67115   0.33678   0.70569   0.00000  Uiso   1.00
C823   C     0.74573   0.48264   0.74472   0.00000  Uiso   1.00
C824   C     0.71863   0.44806   0.76471   0.00000  Uiso   1.00
C825   C     0.69667   0.40575   0.75296   0.00000  Uiso   1.00
C826   C     0.70039   0.39553   0.72076   0.00000  Uiso   1.00
C827   C     0.72790   0.43079   0.70108   0.00000  Uiso   1.00
C828   C     0.75002   0.47324   0.71267   0.00000  Uiso   1.00
C829   C     0.69976   0.30798   0.72166   0.00000  Uiso   1.00
C830   C     0.67789   0.26478   0.73282   0.00000  Uiso   1.00
C831   C     0.69951   0.24423   0.74379   0.00000  Uiso   1.00
C832   C     0.74433   0.26595   0.74407   0.00000  Uiso   1.00
C833   C     0.76671   0.30889   0.73294   0.00000  Uiso   1.00
C834   C     0.74489   0.32925   0.72207   0.00000  Uiso   1.00
C835   C     0.60421   0.29792   0.75347   0.00000  Uiso   1.00
C836   C     0.56268   0.27783   0.76518   0.00000  Uiso   1.00
C837   C     0.52793   0.26577   0.74445   0.00000  Uiso   1.00
C838   C     0.53639   0.27437   0.71165   0.00000  Uiso   1.00
C839   C     0.57807   0.29476   0.70013   0.00000  Uiso   1.00
C840   C     0.61350   0.30747   0.72058   0.00000  Uiso   1.00
H841   H     0.75016   0.36655   0.50424   0.00000  Uiso   1.00
H842   H     0.65433   0.24658   0.54696   0.00000  Uiso   1.00
H843   H     0.69223   0.21029   0.52729   0.00000  Uiso   1.00
H844   H     0.78675   0.32960   0.48328   0.00000  Uiso   1.00
H845   H     0.58144   0.28996   0.57831   0.00000  Uiso   1.00
H846   H     0.50808   0.25133   0.55831   0.00000  Uiso   1.00
H847   H     0.55478   0.27738   0.46113   0.00000  Uiso   1.00
H848   H     0.62823   0.31381   0.48101   0.00000  Uiso   1.00
H849   H     0.69824   0.29420   0.59588   0.00000  Uiso   1.00
H850   H     0.69828   0.29405   0.65428   0.00000  Uiso   1.00
H851   H     0.64605   0.37977   0.65517   0.00000  Uiso   1.00
H852   H     0.64568   0.37964   0.59667   0.00000  Uiso   1.00
H853   H     0.71515   0.45426   0.78983   0.00000  Uiso   1.00
H854   H     0.67602   0.37986   0.76937   0.00000  Uiso   1.00
H855   H     0.73207   0.42494   0.67598   0.00000  Uiso   1.00
H856   H     0.77039   0.49949   0.69646   0.00000  Uiso   1.00
H857   H     0.64302   0.24677   0.73302   0.00000  Uiso   1.00
H858   H     0.68131   0.21110   0.75271   0.00000  Uiso   1.00
H859   H     0.80153   0.32633   0.73243   0.00000  Uiso   1.00
H860   H     0.76338   0.36268   0.71361   0.00000  Uiso   1.00
H861   H     0.63024   0.30643   0.77040   0.00000  Uiso   1.00
H862   H     0.55725   0.27195   0.79082   0.00000  Uiso   1.00
H863   H     0.51005   0.26451   0.69483   0.00000  Uiso   1.00
H864   H     0.58315   0.30078   0.67444   0.00000  Uiso   1.00
C865   C     0.26894   0.52776   0.75711   0.00000  Uiso   1.00
C866   C     0.31051   0.55715   0.74671   0.00000  Uiso   1.00
C867   C     0.33198   0.59969   0.75813   0.00000  Uiso   1.00
C868   C     0.31322   0.61506   0.78051   0.00000  Uiso   1.00
C869   C     0.27151   0.58478   0.79096   0.00000  Uiso   1.00
C870   C     0.24983   0.54228   0.77958   0.00000  Uiso   1.00
H871   H     0.32643   0.54650   0.72977   0.00000  Uiso   1.00
H872   H     0.36425   0.62158   0.74944   0.00000  Uiso   1.00
H873   H     0.25563   0.59490   0.80845   0.00000  Uiso   1.00
H874   H     0.21740   0.52027   0.78783   0.00000  Uiso   1.00
C875   C     0.27256   0.67900   0.76142   0.00000  Uiso   1.00
C876   C     0.31096   0.70145   0.77905   0.00000  Uiso   1.00
C877   C     0.32679   0.74628   0.78439   0.00000  Uiso   1.00
C878   C     0.30557   0.76711   0.77319   0.00000  Uiso   1.00
C879   C     0.26727   0.74408   0.75587   0.00000  Uiso   1.00
C880   C     0.25121   0.69965   0.75008   0.00000  Uiso   1.00
Si881  Si    0.34046   0.67375   0.79535   0.00000  Uiso   1.00
C882   C     0.39814   0.70365   0.78060   0.00000  Uiso   1.00
C883   C     0.42952   0.69617   0.79441   0.00000  Uiso   1.00
C884   C     0.47113   0.71596   0.78288   0.00000  Uiso   1.00
C885   C     0.48368   0.74460   0.75684   0.00000  Uiso   1.00
C886   C     0.45306   0.75269   0.74292   0.00000  Uiso   1.00
C887   C     0.41143   0.73263   0.75450   0.00000  Uiso   1.00
C888   C     0.32970   0.70129   0.85938   0.00000  Uiso   1.00
C889   C     0.32953   0.70082   0.89272   0.00000  Uiso   1.00
C890   C     0.33872   0.67261   0.91018   0.00000  Uiso   1.00
C891   C     0.34816   0.64487   0.89191   0.00000  Uiso   1.00
C892   C     0.34825   0.64529   0.85859   0.00000  Uiso   1.00
C893   C     0.33910   0.67360   0.84113   0.00000  Uiso   1.00
Si894  Si    0.33853   0.67242   0.95589   0.00000  Uiso   1.00
C895   C     0.26303   0.52780   0.99565   0.00000  Uiso   1.00
C896   C     0.29043   0.56296   1.01537   0.00000  Uiso   1.00
C897   C     0.31244   0.60487   1.00322   0.00000  Uiso   1.00
C898   C     0.30831   0.61399   0.97092   0.00000  Uiso   1.00
C899   C     0.28042   0.57821   0.95156   0.00000  Uiso   1.00
C900   C     0.25838   0.53617   0.96353   0.00000  Uiso   1.00
C901   C     0.31032   0.70233   0.97087   0.00000  Uiso   1.00
C902   C     0.33197   0.74697   0.97892   0.00000  Uiso   1.00
C903   C     0.31033   0.76781   0.98950   0.00000  Uiso   1.00
C904   C     0.26560   0.74516   0.99215   0.00000  Uiso   1.00
C905   C     0.24343   0.70095   0.98365   0.00000  Uiso   1.00
C906   C     0.26529   0.68018   0.97346   0.00000  Uiso   1.00
C907   C     0.40707   0.72155   1.00185   0.00000  Uiso   1.00
C908   C     0.44866   0.74132   1.01353   0.00000  Uiso   1.00
C909   C     0.48116   0.73992   0.99603   0.00000  Uiso   1.00
C910   C     0.47024   0.71773   0.96651   0.00000  Uiso   1.00
C911   C     0.42872   0.69854   0.95477   0.00000  Uiso   1.00
C912   C     0.39565   0.69988   0.97190   0.00000  Uiso   1.00
H913   H     0.25901   0.64444   0.75631   0.00000  Uiso   1.00
H914   H     0.35658   0.76538   0.79764   0.00000  Uiso   1.00
H915   H     0.31858   0.80155   0.77834   0.00000  Uiso   1.00
H916   H     0.22200   0.68112   0.73616   0.00000  Uiso   1.00
H917   H     0.42109   0.67415   0.81471   0.00000  Uiso   1.00
H918   H     0.49401   0.70860   0.79396   0.00000  Uiso   1.00
H919   H     0.46199   0.77533   0.72304   0.00000  Uiso   1.00
H920   H     0.38861   0.73976   0.74295   0.00000  Uiso   1.00
H921   H     0.32206   0.72365   0.84727   0.00000  Uiso   1.00
H922   H     0.32187   0.72289   0.90556   0.00000  Uiso   1.00
H923   H     0.35539   0.62223   0.90410   0.00000  Uiso   1.00
H924   H     0.35534   0.62281   0.84572   0.00000  Uiso   1.00
H925   H     0.29415   0.55752   0.04052   0.00000  Uiso   1.00
H926   H     0.33351   0.63139   1.01927   0.00000  Uiso   1.00
H927   H     0.27591   0.58331   0.92644   0.00000  Uiso   1.00
H928   H     0.23779   0.50939   0.94757   0.00000  Uiso   1.00
H929   H     0.36671   0.76593   0.97700   0.00000  Uiso   1.00
H930   H     0.32855   0.80203   0.99625   0.00000  Uiso   1.00
H931   H     0.20864   0.68263   0.98474   0.00000  Uiso   1.00
H932   H     0.24687   0.64570   0.96729   0.00000  Uiso   1.00
H933   H     0.38281   0.72326   1.01638   0.00000  Uiso   1.00
H934   H     0.45604   0.75867   0.03634   0.00000  Uiso   1.00
H935   H     0.49442   0.71513   0.95260   0.00000  Uiso   1.00
H936   H     0.42182   0.68204   0.93156   0.00000  Uiso   1.00
C937   C     0.23985   0.98297   0.50820   0.00000  Uiso   1.00
C938   C     0.19810   0.95357   0.49800   0.00000  Uiso   1.00
C939   C     0.17671   0.91112   0.50921   0.00000  Uiso   1.00
C940   C     0.19582   0.89571   0.53098   0.00000  Uiso   1.00
C941   C     0.23763   0.92607   0.54138   0.00000  Uiso   1.00
C942   C     0.25915   0.96858   0.53037   0.00000  Uiso   1.00
H943   H     0.18199   0.96413   0.48136   0.00000  Uiso   1.00
H944   H     0.14423   0.88936   0.50074   0.00000  Uiso   1.00
H945   H     0.25372   0.91599   0.55853   0.00000  Uiso   1.00
H946   H     0.29163   0.99065   0.53861   0.00000  Uiso   1.00
C947   C     0.23694   0.83214   0.50947   0.00000  Uiso   1.00
C948   C     0.19920   0.81006   0.52778   0.00000  Uiso   1.00
C949   C     0.18372   0.76542   0.53328   0.00000  Uiso   1.00
C950   C     0.20488   0.74451   0.52183   0.00000  Uiso   1.00
C951   C     0.24263   0.76717   0.50390   0.00000  Uiso   1.00
C952   C     0.25808   0.81132   0.49772   0.00000  Uiso   1.00
Si953  Si    0.16951   0.83710   0.54535   0.00000  Uiso   1.00
C954   C     0.11147   0.80586   0.53148   0.00000  Uiso   1.00
C955   C     0.07613   0.78737   0.55245   0.00000  Uiso   1.00
C956   C     0.03429   0.76568   0.54116   0.00000  Uiso   1.00
C957   C     0.02557   0.76170   0.50814   0.00000  Uiso   1.00
C958   C     0.06036   0.77953   0.48688   0.00000  Uiso   1.00
C959   C     0.10207   0.80072   0.49831   0.00000  Uiso   1.00
C960   C     0.18645   0.81302   0.60858   0.00000  Uiso   1.00
C961   C     0.18654   0.81299   0.64194   0.00000  Uiso   1.00
C962   C     0.17203   0.83672   0.66000   0.00000  Uiso   1.00
C963   C     0.15742   0.86062   0.64239   0.00000  Uiso   1.00
C964   C     0.15722   0.86054   0.60909   0.00000  Uiso   1.00
C965   C     0.17166   0.83663   0.59101   0.00000  Uiso   1.00
Si966  Si    0.17115   0.83678   0.70569   0.00000  Uiso   1.00
C967   C     0.24573   0.98264   0.74472   0.00000  Uiso   1.00
C968   C     0.21863   0.94806   0.76471   0.00000  Uiso   1.00
C969   C     0.19667   0.90575   0.75296   0.00000  Uiso   1.00
C970   C     0.20039   0.89553   0.72076   0.00000  Uiso   1.00
C971   C     0.22790   0.93079   0.70108   0.00000  Uiso   1.00
C972   C     0.25002   0.97324   0.71267   0.00000  Uiso   1.00
C973   C     0.19976   0.80798   0.72166   0.00000  Uiso   1.00
C974   C     0.17789   0.76478   0.73282   0.00000  Uiso   1.00
C975   C     0.19951   0.74423   0.74379   0.00000  Uiso   1.00
C976   C     0.24433   0.76595   0.74407   0.00000  Uiso   1.00
C977   C     0.26671   0.80889   0.73294   0.00000  Uiso   1.00
C978   C     0.24489   0.82925   0.72207   0.00000  Uiso   1.00
C979   C     0.10421   0.79792   0.75347   0.00000  Uiso   1.00
C980   C     0.06268   0.77783   0.76518   0.00000  Uiso   1.00
C981   C     0.02793   0.76577   0.74445   0.00000  Uiso   1.00
C982   C     0.03639   0.77437   0.71165   0.00000  Uiso   1.00
C983   C     0.07807   0.79476   0.70013   0.00000  Uiso   1.00
C984   C     0.11350   0.80747   0.72058   0.00000  Uiso   1.00
H985   H     0.25016   0.86655   0.50424   0.00000  Uiso   1.00
H986   H     0.15433   0.74658   0.54696   0.00000  Uiso   1.00
H987   H     0.19223   0.71029   0.52729   0.00000  Uiso   1.00
H988   H     0.28675   0.82960   0.48328   0.00000  Uiso   1.00
H989   H     0.08145   0.78996   0.57831   0.00000  Uiso   1.00
H990   H     1.00808   0.75133   0.55831   0.00000  Uiso   1.00
H991   H     0.05478   0.77738   0.46112   0.00000  Uiso   1.00
H992   H     0.12823   0.81381   0.48101   0.00000  Uiso   1.00
H993   H     0.19824   0.79420   0.59588   0.00000  Uiso   1.00
H994   H     0.19828   0.79405   0.65428   0.00000  Uiso   1.00
H995   H     0.14605   0.87977   0.65517   0.00000  Uiso   1.00
H996   H     0.14568   0.87964   0.59667   0.00000  Uiso   1.00
H997   H     0.21515   0.95426   0.78983   0.00000  Uiso   1.00
H998   H     0.17602   0.87987   0.76937   0.00000  Uiso   1.00
H999   H     0.23207   0.92494   0.67598   0.00000  Uiso   1.00
H1000  H     0.27039   0.99949   0.69646   0.00000  Uiso   1.00
H1001  H     0.14302   0.74677   0.73302   0.00000  Uiso   1.00
H1002  H     0.18131   0.71110   0.75271   0.00000  Uiso   1.00
H1003  H     0.30153   0.82633   0.73243   0.00000  Uiso   1.00
H1004  H     0.26338   0.86268   0.71361   0.00000  Uiso   1.00
H1005  H     0.13024   0.80643   0.77040   0.00000  Uiso   1.00
H1006  H     0.05725   0.77195   0.79082   0.00000  Uiso   1.00
H1007  H     0.01005   0.76451   0.69483   0.00000  Uiso   1.00
H1008  H     0.08315   0.80078   0.67444   0.00000  Uiso   1.00
C1009  C     0.76894   0.52776   0.75711   0.00000  Uiso   1.00
C1010  C     0.81051   0.55715   0.74671   0.00000  Uiso   1.00
C1011  C     0.83198   0.59969   0.75813   0.00000  Uiso   1.00
C1012  C     0.81322   0.61506   0.78051   0.00000  Uiso   1.00
C1013  C     0.77151   0.58478   0.79096   0.00000  Uiso   1.00
C1014  C     0.74983   0.54228   0.77958   0.00000  Uiso   1.00
H1015  H     0.82643   0.54650   0.72977   0.00000  Uiso   1.00
H1016  H     0.86425   0.62158   0.74944   0.00000  Uiso   1.00
H1017  H     0.75564   0.59490   0.80845   0.00000  Uiso   1.00
H1018  H     0.71740   0.52027   0.78782   0.00000  Uiso   1.00
C1019  C     0.77256   0.67900   0.76142   0.00000  Uiso   1.00
C1020  C     0.81096   0.70145   0.77905   0.00000  Uiso   1.00
C1021  C     0.82679   0.74628   0.78439   0.00000  Uiso   1.00
C1022  C     0.80557   0.76711   0.77319   0.00000  Uiso   1.00
C1023  C     0.76727   0.74408   0.75587   0.00000  Uiso   1.00
C1024  C     0.75121   0.69965   0.75008   0.00000  Uiso   1.00
Si1025 Si    0.84046   0.67375   0.79535   0.00000  Uiso   1.00
C1026  C     0.89814   0.70365   0.78060   0.00000  Uiso   1.00
C1027  C     0.92952   0.69617   0.79441   0.00000  Uiso   1.00
C1028  C     0.97113   0.71596   0.78288   0.00000  Uiso   1.00
C1029  C     0.98368   0.74460   0.75684   0.00000  Uiso   1.00
C1030  C     0.95306   0.75269   0.74292   0.00000  Uiso   1.00
C1031  C     0.91144   0.73263   0.75450   0.00000  Uiso   1.00
C1032  C     0.82970   0.70129   0.85938   0.00000  Uiso   1.00
C1033  C     0.82953   0.70082   0.89272   0.00000  Uiso   1.00
C1034  C     0.83872   0.67261   0.91018   0.00000  Uiso   1.00
C1035  C     0.84816   0.64487   0.89191   0.00000  Uiso   1.00
C1036  C     0.84825   0.64529   0.85859   0.00000  Uiso   1.00
C1037  C     0.83910   0.67360   0.84113   0.00000  Uiso   1.00
Si1038 Si    0.83853   0.67242   0.95589   0.00000  Uiso   1.00
C1039  C     0.76303   0.52780   0.99565   0.00000  Uiso   1.00
C1040  C     0.79043   0.56296   1.01537   0.00000  Uiso   1.00
C1041  C     0.81244   0.60487   1.00322   0.00000  Uiso   1.00
C1042  C     0.80831   0.61399   0.97092   0.00000  Uiso   1.00
C1043  C     0.78042   0.57821   0.95156   0.00000  Uiso   1.00
C1044  C     0.75838   0.53617   0.96353   0.00000  Uiso   1.00
C1045  C     0.81032   0.70233   0.97087   0.00000  Uiso   1.00
C1046  C     0.83197   0.74697   0.97892   0.00000  Uiso   1.00
C1047  C     0.81033   0.76781   0.98950   0.00000  Uiso   1.00
C1048  C     0.76561   0.74516   0.99215   0.00000  Uiso   1.00
C1049  C     0.74343   0.70095   0.98365   0.00000  Uiso   1.00
C1050  C     0.76529   0.68018   0.97346   0.00000  Uiso   1.00
C1051  C     0.90707   0.72155   1.00185   0.00000  Uiso   1.00
C1052  C     0.94866   0.74132   1.01353   0.00000  Uiso   1.00
C1053  C     0.98116   0.73992   0.99602   0.00000  Uiso   1.00
C1054  C     0.97024   0.71773   0.96651   0.00000  Uiso   1.00
C1055  C     0.92872   0.69854   0.95477   0.00000  Uiso   1.00
C1056  C     0.89565   0.69988   0.97190   0.00000  Uiso   1.00
H1057  H     0.75901   0.64444   0.75631   0.00000  Uiso   1.00
H1058  H     0.85658   0.76538   0.79764   0.00000  Uiso   1.00
H1059  H     0.81858   0.80155   0.77834   0.00000  Uiso   1.00
H1060  H     0.72200   0.68112   0.73616   0.00000  Uiso   1.00
H1061  H     0.92109   0.67415   0.81471   0.00000  Uiso   1.00
H1062  H     0.99401   0.70860   0.79396   0.00000  Uiso   1.00
H1063  H     0.96200   0.77533   0.72304   0.00000  Uiso   1.00
H1064  H     0.88861   0.73976   0.74295   0.00000  Uiso   1.00
H1065  H     0.82206   0.72365   0.84727   0.00000  Uiso   1.00
H1066  H     0.82187   0.72289   0.90556   0.00000  Uiso   1.00
H1067  H     0.85539   0.62223   0.90410   0.00000  Uiso   1.00
H1068  H     0.85534   0.62281   0.84572   0.00000  Uiso   1.00
H1069  H     0.79415   0.55752   0.04052   0.00000  Uiso   1.00
H1070  H     0.83351   0.63139   1.01927   0.00000  Uiso   1.00
H1071  H     0.77591   0.58331   0.92644   0.00000  Uiso   1.00
H1072  H     0.73779   0.50939   0.94757   0.00000  Uiso   1.00
H1073  H     0.86671   0.76593   0.97700   0.00000  Uiso   1.00
H1074  H     0.82855   0.80203   0.99625   0.00000  Uiso   1.00
H1075  H     0.70864   0.68263   0.98474   0.00000  Uiso   1.00
H1076  H     0.74687   0.64570   0.96729   0.00000  Uiso   1.00
H1077  H     0.88281   0.72326   1.01638   0.00000  Uiso   1.00
H1078  H     0.95604   0.75867   0.03634   0.00000  Uiso   1.00
H1079  H    -0.00558   0.71513   0.95260   0.00000  Uiso   1.00
H1080  H     0.92182   0.68204   0.93156   0.00000  Uiso   1.00
C1081  C     0.73985   0.98297   0.50820   0.00000  Uiso   1.00
C1082  C     0.69810   0.95358   0.49800   0.00000  Uiso   1.00
C1083  C     0.67671   0.91112   0.50921   0.00000  Uiso   1.00
C1084  C     0.69581   0.89571   0.53098   0.00000  Uiso   1.00
C1085  C     0.73763   0.92607   0.54138   0.00000  Uiso   1.00
C1086  C     0.75915   0.96858   0.53037   0.00000  Uiso   1.00
H1087  H     0.68199   0.96413   0.48136   0.00000  Uiso   1.00
H1088  H     0.64423   0.88936   0.50074   0.00000  Uiso   1.00
H1089  H     0.75372   0.91599   0.55853   0.00000  Uiso   1.00
H1090  H     0.79163   0.99065   0.53861   0.00000  Uiso   1.00
C1091  C     0.73694   0.83214   0.50948   0.00000  Uiso   1.00
C1092  C     0.69920   0.81006   0.52778   0.00000  Uiso   1.00
C1093  C     0.68373   0.76542   0.53328   0.00000  Uiso   1.00
C1094  C     0.70488   0.74451   0.52183   0.00000  Uiso   1.00
C1095  C     0.74263   0.76717   0.50390   0.00000  Uiso   1.00
C1096  C     0.75808   0.81132   0.49772   0.00000  Uiso   1.00
Si1097 Si    0.66951   0.83710   0.54535   0.00000  Uiso   1.00
C1098  C     0.61147   0.80586   0.53148   0.00000  Uiso   1.00
C1099  C     0.57613   0.78737   0.55245   0.00000  Uiso   1.00
C1100  C     0.53429   0.76568   0.54116   0.00000  Uiso   1.00
C1101  C     0.52557   0.76170   0.50814   0.00000  Uiso   1.00
C1102  C     0.56036   0.77953   0.48688   0.00000  Uiso   1.00
C1103  C     0.60207   0.80072   0.49831   0.00000  Uiso   1.00
C1104  C     0.68645   0.81302   0.60858   0.00000  Uiso   1.00
C1105  C     0.68654   0.81299   0.64194   0.00000  Uiso   1.00
C1106  C     0.67203   0.83672   0.66000   0.00000  Uiso   1.00
C1107  C     0.65742   0.86062   0.64239   0.00000  Uiso   1.00
C1108  C     0.65722   0.86054   0.60909   0.00000  Uiso   1.00
C1109  C     0.67166   0.83663   0.59101   0.00000  Uiso   1.00
Si1110 Si    0.67115   0.83678   0.70569   0.00000  Uiso   1.00
C1111  C     0.74573   0.98264   0.74472   0.00000  Uiso   1.00
C1112  C     0.71863   0.94806   0.76471   0.00000  Uiso   1.00
C1113  C     0.69667   0.90575   0.75296   0.00000  Uiso   1.00
C1114  C     0.70039   0.89553   0.72076   0.00000  Uiso   1.00
C1115  C     0.72790   0.93079   0.70108   0.00000  Uiso   1.00
C1116  C     0.75002   0.97324   0.71267   0.00000  Uiso   1.00
C1117  C     0.69976   0.80798   0.72166   0.00000  Uiso   1.00
C1118  C     0.67789   0.76478   0.73282   0.00000  Uiso   1.00
C1119  C     0.69951   0.74423   0.74379   0.00000  Uiso   1.00
C1120  C     0.74433   0.76595   0.74407   0.00000  Uiso   1.00
C1121  C     0.76671   0.80889   0.73294   0.00000  Uiso   1.00
C1122  C     0.74489   0.82925   0.72206   0.00000  Uiso   1.00
C1123  C     0.60421   0.79792   0.75347   0.00000  Uiso   1.00
C1124  C     0.56268   0.77783   0.76518   0.00000  Uiso   1.00
C1125  C     0.52793   0.76577   0.74445   0.00000  Uiso   1.00
C1126  C     0.53639   0.77437   0.71165   0.00000  Uiso   1.00
C1127  C     0.57807   0.79476   0.70013   0.00000  Uiso   1.00
C1128  C     0.61350   0.80747   0.72058   0.00000  Uiso   1.00
H1129  H     0.75016   0.86655   0.50424   0.00000  Uiso   1.00
H1130  H     0.65433   0.74658   0.54696   0.00000  Uiso   1.00
H1131  H     0.69223   0.71029   0.52729   0.00000  Uiso   1.00
H1132  H     0.78675   0.82960   0.48328   0.00000  Uiso   1.00
H1133  H     0.58144   0.78996   0.57831   0.00000  Uiso   1.00
H1134  H     0.50808   0.75133   0.55831   0.00000  Uiso   1.00
H1135  H     0.55478   0.77738   0.46113   0.00000  Uiso   1.00
H1136  H     0.62823   0.81381   0.48101   0.00000  Uiso   1.00
H1137  H     0.69824   0.79420   0.59588   0.00000  Uiso   1.00
H1138  H     0.69828   0.79405   0.65428   0.00000  Uiso   1.00
H1139  H     0.64605   0.87977   0.65517   0.00000  Uiso   1.00
H1140  H     0.64568   0.87964   0.59667   0.00000  Uiso   1.00
H1141  H     0.71515   0.95426   0.78983   0.00000  Uiso   1.00
H1142  H     0.67602   0.87987   0.76937   0.00000  Uiso   1.00
H1143  H     0.73207   0.92494   0.67598   0.00000  Uiso   1.00
H1144  H     0.77039   0.99948   0.69646   0.00000  Uiso   1.00
H1145  H     0.64302   0.74677   0.73302   0.00000  Uiso   1.00
H1146  H     0.68131   0.71110   0.75271   0.00000  Uiso   1.00
H1147  H     0.80153   0.82633   0.73243   0.00000  Uiso   1.00
H1148  H     0.76338   0.86268   0.71361   0.00000  Uiso   1.00
H1149  H     0.63024   0.80643   0.77040   0.00000  Uiso   1.00
H1150  H     0.55725   0.77195   0.79082   0.00000  Uiso   1.00
H1151  H     0.51005   0.76451   0.69483   0.00000  Uiso   1.00
H1152  H     0.58315   0.80078   0.67444   0.00000  Uiso   1.00
loop_
_geom_bond_atom_site_label_1
_geom_bond_atom_site_label_2
_geom_bond_distance
_geom_bond_site_symmetry_2
_ccdc_geom_bond_type
C1     C2      1.397   .     A
C1     C6      1.398   .     A
C1     C391    1.473   1_545 S
C2     C3      1.385   .     A
C2     H7      1.085   .     S
C3     C4      1.405   .     A
C3     H8      1.086   .     S
C4     C5      1.408   .     A
C4     Si17    1.898   .     S
C5     C6      1.383   .     A
C5     H9      1.087   .     S
C6     H10     1.085   .     S
C11    C12     1.405   .     A
C11    C16     1.384   .     A
C11    H49     1.086   .     S
C12    C13     1.408   .     A
C12    Si17    1.898   .     S
C13    C14     1.384   .     A
C13    H50     1.087   .     S
C14    C15     1.398   .     A
C14    H51     1.085   .     S
C15    C16     1.397   .     A
C15    C112    1.473   .     S
C16    H52     1.085   .     S
Si17   C18     1.899   .     S
Si17   C29     1.902   .     S
C18    C19     1.407   .     A
C18    C23     1.406   .     A
C19    C20     1.383   .     A
C19    H53     1.087   .     S
C20    C21     1.398   .     A
C20    H54     1.085   .     S
C21    C22     1.397   .     A
C21    C261    1.473   .     S
C22    C23     1.384   .     A
C22    H55     1.085   .     S
C23    H56     1.086   .     S
C24    C25     1.385   .     A
C24    C29     1.404   .     A
C24    H57     1.086   .     S
C25    C26     1.405   .     A
C25    H58     1.087   .     S
C26    C27     1.407   .     A
C26    Si30    1.899   .     S
C27    C28     1.384   .     A
C27    H59     1.087   .     S
C28    C29     1.407   .     A
C28    H60     1.087   .     S
Si30   C34     1.900   .     S
Si30   C37     1.899   .     S
Si30   C48     1.900   .     S
C31    C32     1.397   .     A
C31    C36     1.397   .     A
C31    C937    1.473   1_545 S
C32    C33     1.383   .     A
C32    H61     1.084   .     S
C33    C34     1.407   .     A
C33    H62     1.087   .     S
C34    C35     1.405   .     A
C35    C36     1.384   .     A
C35    H63     1.086   .     S
C36    H64     1.085   1_545 S
C37    C38     1.406   .     A
C37    C42     1.407   .     A
C38    C39     1.384   .     A
C38    H65     1.086   .     S
C39    C40     1.398   .     A
C39    H66     1.085   .     S
C40    C41     1.398   .     A
C40    C663    1.472   .     S
C41    C42     1.383   .     A
C41    H67     1.085   .     S
C42    H68     1.087   .     S
C43    C44     1.384   .     A
C43    C48     1.407   .     A
C43    H69     1.086   .     S
C44    C45     1.398   .     A
C44    H70     1.084   .     S
C45    C46     1.398   .     A
C45    C813    1.472   .     S
C46    C47     1.384   .     A
C46    H71     1.085   .     S
C47    C48     1.406   .     A
C47    H72     1.086   .     S
H64    C36     1.085   1_565 S
C73    C74     1.397   .     A
C73    C78     1.398   .     A
C73    C895    1.473   1_554 S
C74    C75     1.384   .     A
C74    H79     1.084   1_554 S
C75    C76     1.405   .     A
C75    H80     1.086   .     S
C76    C77     1.408   .     A
C76    Si89    1.898   .     S
C77    C78     1.383   .     A
C77    H81     1.087   .     S
C78    H82     1.085   .     S
H79    C74     1.084   1_556 S
C83    C84     1.405   .     A
C83    C88     1.384   .     A
C83    H121    1.086   .     S
C84    C85     1.408   .     A
C84    Si89    1.898   .     S
C85    C86     1.383   .     A
C85    H122    1.087   .     S
C86    C87     1.398   .     A
C86    H123    1.085   .     S
C87    C88     1.397   .     A
C87    C616    1.472   1_554 S
C88    H124    1.085   .     S
Si89   C90     1.898   .     S
Si89   C101    1.899   .     S
C90    C91     1.405   .     A
C90    C95     1.408   .     A
C91    C92     1.385   .     A
C91    H125    1.086   .     S
C92    C93     1.398   .     A
C92    H126    1.085   1_455 S
C93    C94     1.399   .     A
C93    C765    1.472   1_454 S
C94    C95     1.383   .     A
C94    H127    1.084   1_554 S
C95    H128    1.087   .     S
C96    C97     1.385   .     A
C96    C101    1.404   .     A
C96    H129    1.086   .     S
C97    C98     1.404   .     A
C97    H130    1.087   .     S
C98    C99     1.408   .     A
C98    Si102   1.898   .     S
C99    C100    1.383   .     A
C99    H131    1.087   .     S
C100   C101    1.408   .     A
C100   H132    1.087   .     S
Si102  C106    1.902   .     S
Si102  C109    1.899   .     S
Si102  C120    1.900   .     S
C103   C104    1.397   .     A
C103   C108    1.397   .     A
C103   C289    1.473   .     S
C104   C105    1.383   .     A
C104   H133    1.085   .     S
C105   C106    1.407   .     A
C105   H134    1.086   .     S
C106   C107    1.406   .     A
C107   C108    1.385   .     A
C107   H135    1.086   .     S
C108   H136    1.085   .     S
C109   C110    1.405   .     A
C109   C114    1.407   .     A
C110   C111    1.384   .     A
C110   H137    1.086   .     S
C111   C112    1.397   .     A
C111   H138    1.085   .     S
C112   C113    1.398   .     A
C113   C114    1.384   .     A
C113   H139    1.085   .     S
C114   H140    1.087   .     S
C115   C116    1.383   .     A
C115   C120    1.408   .     A
C115   H141    1.087   .     S
C116   C117    1.398   .     A
C116   H142    1.085   .     S
C117   C118    1.397   .     A
C117   C165    1.473   1_455 S
C118   C119    1.384   .     A
C118   H143    1.085   .     S
C119   C120    1.406   .     A
C119   H144    1.086   .     S
H126   C92     1.085   1_655 S
H127   C94     1.084   1_556 S
C145   C146    1.397   .     A
C145   C150    1.398   .     A
C145   C535    1.473   1_545 S
C146   C147    1.385   .     A
C146   H151    1.085   .     S
C147   C148    1.405   .     A
C147   H152    1.086   .     S
C148   C149    1.408   .     A
C148   Si161   1.898   .     S
C149   C150    1.383   .     A
C149   H153    1.087   .     S
C150   H154    1.085   .     S
C155   C156    1.405   .     A
C155   C160    1.384   .     A
C155   H193    1.086   .     S
C156   C157    1.408   .     A
C156   Si161   1.898   .     S
C157   C158    1.384   .     A
C157   H194    1.087   .     S
C158   C159    1.398   .     A
C158   H195    1.085   .     S
C159   C160    1.397   .     A
C159   C256    1.473   .     S
C160   H196    1.085   .     S
Si161  C162    1.899   .     S
Si161  C173    1.902   .     S
C162   C163    1.407   .     A
C162   C167    1.406   .     A
C163   C164    1.383   .     A
C163   H197    1.087   .     S
C164   C165    1.398   .     A
C164   H198    1.085   .     S
C165   C117    1.473   1_655 S
C165   C166    1.397   .     A
C166   C167    1.384   .     A
C166   H199    1.085   .     S
C167   H200    1.086   .     S
C168   C169    1.385   .     A
C168   C173    1.404   .     A
C168   H201    1.086   .     S
C169   C170    1.405   .     A
C169   H202    1.087   .     S
C170   C171    1.407   .     A
C170   Si174   1.899   .     S
C171   C172    1.384   .     A
C171   H203    1.087   .     S
C172   C173    1.407   .     A
C172   H204    1.087   .     S
Si174  C178    1.900   .     S
Si174  C181    1.899   .     S
Si174  C192    1.900   .     S
C175   C176    1.397   .     A
C175   C180    1.397   .     A
C175   C1081   1.473   1_545 S
C176   C177    1.383   .     A
C176   H205    1.084   .     S
C177   C178    1.407   .     A
C177   H206    1.087   .     S
C178   C179    1.405   .     A
C179   C180    1.384   .     A
C179   H207    1.086   .     S
C180   H208    1.085   1_545 S
C181   C182    1.406   .     A
C181   C186    1.407   .     A
C182   C183    1.384   .     A
C182   H209    1.086   .     S
C183   C184    1.398   .     A
C183   H210    1.085   .     S
C184   C185    1.398   .     A
C184   C807    1.472   .     S
C185   C186    1.383   .     A
C185   H211    1.085   .     S
C186   H212    1.087   .     S
C187   C188    1.384   .     A
C187   C192    1.407   .     A
C187   H213    1.086   .     S
C188   C189    1.398   .     A
C188   H214    1.084   .     S
C189   C190    1.398   .     A
C189   C669    1.472   1_655 S
C190   C191    1.384   .     A
C190   H215    1.085   1_655 S
C191   C192    1.406   .     A
C191   H216    1.086   .     S
H208   C180    1.085   1_565 S
H215   C190    1.085   1_455 S
C217   C218    1.397   .     A
C217   C222    1.398   .     A
C217   C1039   1.473   1_554 S
C218   C219    1.384   .     A
C218   H223    1.084   1_554 S
C219   C220    1.405   .     A
C219   H224    1.086   .     S
C220   C221    1.408   .     A
C220   Si233   1.898   .     S
C221   C222    1.383   .     A
C221   H225    1.087   .     S
C222   H226    1.085   .     S
H223   C218    1.084   1_556 S
C227   C228    1.405   .     A
C227   C232    1.384   .     A
C227   H265    1.086   .     S
C228   C229    1.408   .     A
C228   Si233   1.898   .     S
C229   C230    1.383   .     A
C229   H266    1.087   .     S
C230   C231    1.398   .     A
C230   H267    1.085   .     S
C231   C232    1.397   .     A
C231   C760    1.472   1_554 S
C232   H268    1.085   .     S
Si233  C234    1.898   .     S
Si233  C245    1.899   .     S
C234   C235    1.405   .     A
C234   C239    1.408   .     A
C235   C236    1.385   .     A
C235   H269    1.086   .     S
C236   C237    1.398   .     A
C236   H270    1.085   .     S
C237   C238    1.399   .     A
C237   C621    1.472   1_554 S
C238   C239    1.383   .     A
C238   H271    1.084   1_554 S
C239   H272    1.087   .     S
C240   C241    1.385   .     A
C240   C245    1.404   .     A
C240   H273    1.086   .     S
C241   C242    1.404   .     A
C241   H274    1.087   .     S
C242   C243    1.408   .     A
C242   Si246   1.898   .     S
C243   C244    1.383   .     A
C243   H275    1.087   .     S
C244   C245    1.408   .     A
C244   H276    1.087   .     S
Si246  C250    1.902   .     S
Si246  C253    1.899   .     S
Si246  C264    1.900   .     S
C247   C248    1.397   .     A
C247   C252    1.397   .     A
C247   C433    1.473   .     S
C248   C249    1.383   .     A
C248   H277    1.085   .     S
C249   C250    1.407   .     A
C249   H278    1.086   .     S
C250   C251    1.406   .     A
C251   C252    1.385   .     A
C251   H279    1.086   .     S
C252   H280    1.085   .     S
C253   C254    1.405   .     A
C253   C258    1.407   .     A
C254   C255    1.384   .     A
C254   H281    1.086   .     S
C255   C256    1.397   .     A
C255   H282    1.085   .     S
C256   C257    1.398   .     A
C257   C258    1.384   .     A
C257   H283    1.085   .     S
C258   H284    1.087   .     S
C259   C260    1.383   .     A
C259   C264    1.408   .     A
C259   H285    1.087   .     S
C260   C261    1.398   .     A
C260   H286    1.085   .     S
C261   C262    1.397   .     A
C262   C263    1.384   .     A
C262   H287    1.085   .     S
C263   C264    1.406   .     A
C263   H288    1.086   .     S
H271   C238    1.084   1_556 S
C289   C290    1.397   .     A
C289   C294    1.398   .     A
C290   C291    1.385   .     A
C290   H295    1.085   .     S
C291   C292    1.405   .     A
C291   H296    1.086   .     S
C292   C293    1.408   .     A
C292   Si305   1.898   .     S
C293   C294    1.383   .     A
C293   H297    1.087   .     S
C294   H298    1.085   .     S
C299   C300    1.405   .     A
C299   C304    1.384   .     A
C299   H337    1.086   .     S
C300   C301    1.408   .     A
C300   Si305   1.898   .     S
C301   C302    1.384   .     A
C301   H338    1.087   .     S
C302   C303    1.398   .     A
C302   H339    1.085   .     S
C303   C304    1.397   .     A
C303   C400    1.473   .     S
C304   H340    1.085   .     S
Si305  C306    1.899   .     S
Si305  C317    1.902   .     S
C306   C307    1.407   .     A
C306   C311    1.406   .     A
C307   C308    1.383   .     A
C307   H341    1.087   .     S
C308   C309    1.398   .     A
C308   H342    1.085   .     S
C309   C310    1.397   .     A
C309   C549    1.473   .     S
C310   C311    1.384   .     A
C310   H343    1.085   .     S
C311   H344    1.086   .     S
C312   C313    1.385   .     A
C312   C317    1.404   .     A
C312   H345    1.086   .     S
C313   C314    1.405   .     A
C313   H346    1.087   .     S
C314   C315    1.407   .     A
C314   Si318   1.899   .     S
C315   C316    1.384   .     A
C315   H347    1.087   .     S
C316   C317    1.407   .     A
C316   H348    1.087   .     S
Si318  C322    1.900   .     S
Si318  C325    1.899   .     S
Si318  C336    1.900   .     S
C319   C320    1.397   .     A
C319   C324    1.397   .     A
C319   C649    1.473   .     S
C320   C321    1.383   .     A
C320   H349    1.084   .     S
C321   C322    1.407   .     A
C321   H350    1.087   .     S
C322   C323    1.405   .     A
C323   C324    1.384   .     A
C323   H351    1.086   .     S
C324   H352    1.085   .     S
C325   C326    1.406   .     A
C325   C330    1.407   .     A
C326   C327    1.384   .     A
C326   H353    1.086   .     S
C327   C328    1.398   .     A
C327   H354    1.085   .     S
C328   C329    1.398   .     A
C328   C951    1.472   .     S
C329   C330    1.383   .     A
C329   H355    1.085   .     S
C330   H356    1.087   .     S
C331   C332    1.384   .     A
C331   C336    1.407   .     A
C331   H357    1.086   .     S
C332   C333    1.398   .     A
C332   H358    1.084   .     S
C333   C334    1.398   .     A
C333   C1101   1.472   .     S
C334   C335    1.384   .     A
C334   H359    1.085   .     S
C335   C336    1.406   .     A
C335   H360    1.086   .     S
C361   C362    1.397   .     A
C361   C366    1.398   .     A
C361   C607    1.473   1_564 S
C362   C363    1.384   .     A
C362   H367    1.084   1_554 S
C363   C364    1.405   .     A
C363   H368    1.086   .     S
C364   C365    1.408   .     A
C364   Si377   1.898   .     S
C365   C366    1.383   .     A
C365   H369    1.087   .     S
C366   H370    1.085   .     S
H367   C362    1.084   1_556 S
C371   C372    1.405   .     A
C371   C376    1.384   .     A
C371   H409    1.086   .     S
C372   C373    1.408   .     A
C372   Si377   1.898   .     S
C373   C374    1.383   .     A
C373   H410    1.087   .     S
C374   C375    1.398   .     A
C374   H411    1.085   .     S
C375   C376    1.397   .     A
C375   C904    1.472   1_554 S
C376   H412    1.085   .     S
Si377  C378    1.898   .     S
Si377  C389    1.899   .     S
C378   C379    1.405   .     A
C378   C383    1.408   .     A
C379   C380    1.385   .     A
C379   H413    1.086   .     S
C380   C381    1.398   .     A
C380   H414    1.085   1_455 S
C381   C382    1.399   .     A
C381   C1053   1.472   1_454 S
C382   C383    1.383   .     A
C382   H415    1.084   1_554 S
C383   H416    1.087   .     S
C384   C385    1.385   .     A
C384   C389    1.404   .     A
C384   H417    1.086   .     S
C385   C386    1.404   .     A
C385   H418    1.087   .     S
C386   C387    1.408   .     A
C386   Si390   1.898   .     S
C387   C388    1.383   .     A
C387   H419    1.087   .     S
C388   C389    1.408   .     A
C388   H420    1.087   .     S
Si390  C394    1.902   .     S
Si390  C397    1.899   .     S
Si390  C408    1.900   .     S
C391   C1      1.473   1_565 S
C391   C392    1.397   .     A
C391   C396    1.397   .     A
C392   C393    1.383   .     A
C392   H421    1.085   .     S
C393   C394    1.407   .     A
C393   H422    1.086   .     S
C394   C395    1.406   .     A
C395   C396    1.385   .     A
C395   H423    1.086   .     S
C396   H424    1.085   .     S
C397   C398    1.405   .     A
C397   C402    1.407   .     A
C398   C399    1.384   .     A
C398   H425    1.086   .     S
C399   C400    1.397   .     A
C399   H426    1.085   .     S
C400   C401    1.398   .     A
C401   C402    1.384   .     A
C401   H427    1.085   .     S
C402   H428    1.087   .     S
C403   C404    1.383   .     A
C403   C408    1.408   .     A
C403   H429    1.087   .     S
C404   C405    1.398   .     A
C404   H430    1.085   .     S
C405   C406    1.397   .     A
C405   C453    1.473   1_455 S
C406   C407    1.384   .     A
C406   H431    1.085   .     S
C407   C408    1.406   .     A
C407   H432    1.086   .     S
H414   C380    1.085   1_655 S
H415   C382    1.084   1_556 S
C433   C434    1.397   .     A
C433   C438    1.398   .     A
C434   C435    1.385   .     A
C434   H439    1.085   .     S
C435   C436    1.405   .     A
C435   H440    1.086   .     S
C436   C437    1.408   .     A
C436   Si449   1.898   .     S
C437   C438    1.383   .     A
C437   H441    1.087   .     S
C438   H442    1.085   .     S
C443   C444    1.405   .     A
C443   C448    1.384   .     A
C443   H481    1.086   .     S
C444   C445    1.408   .     A
C444   Si449   1.898   .     S
C445   C446    1.384   .     A
C445   H482    1.087   .     S
C446   C447    1.398   .     A
C446   H483    1.085   .     S
C447   C448    1.397   .     A
C447   C544    1.473   .     S
C448   H484    1.085   .     S
Si449  C450    1.899   .     S
Si449  C461    1.902   .     S
C450   C451    1.407   .     A
C450   C455    1.406   .     A
C451   C452    1.383   .     A
C451   H485    1.087   .     S
C452   C453    1.398   .     A
C452   H486    1.085   .     S
C453   C405    1.473   1_655 S
C453   C454    1.397   .     A
C454   C455    1.384   .     A
C454   H487    1.085   .     S
C455   H488    1.086   .     S
C456   C457    1.385   .     A
C456   C461    1.404   .     A
C456   H489    1.086   .     S
C457   C458    1.405   .     A
C457   H490    1.087   .     S
C458   C459    1.407   .     A
C458   Si462   1.899   .     S
C459   C460    1.384   .     A
C459   H491    1.087   .     S
C460   C461    1.407   .     A
C460   H492    1.087   .     S
Si462  C466    1.900   .     S
Si462  C469    1.899   .     S
Si462  C480    1.900   .     S
C463   C464    1.397   .     A
C463   C468    1.397   .     A
C463   C793    1.473   .     S
C464   C465    1.383   .     A
C464   H493    1.084   .     S
C465   C466    1.407   .     A
C465   H494    1.087   .     S
C466   C467    1.405   .     A
C467   C468    1.384   .     A
C467   H495    1.086   .     S
C468   H496    1.085   .     S
C469   C470    1.406   .     A
C469   C474    1.407   .     A
C470   C471    1.384   .     A
C470   H497    1.086   .     S
C471   C472    1.398   .     A
C471   H498    1.085   .     S
C472   C473    1.398   .     A
C472   C1095   1.472   .     S
C473   C474    1.383   .     A
C473   H499    1.085   .     S
C474   H500    1.087   .     S
C475   C476    1.384   .     A
C475   C480    1.407   .     A
C475   H501    1.086   .     S
C476   C477    1.398   .     A
C476   H502    1.084   .     S
C477   C478    1.398   .     A
C477   C957    1.472   1_655 S
C478   C479    1.384   .     A
C478   H503    1.085   1_655 S
C479   C480    1.406   .     A
C479   H504    1.086   .     S
H503   C478    1.085   1_455 S
C505   C506    1.397   .     A
C505   C510    1.398   .     A
C505   C751    1.473   1_564 S
C506   C507    1.384   .     A
C506   H511    1.084   1_554 S
C507   C508    1.405   .     A
C507   H512    1.086   .     S
C508   C509    1.408   .     A
C508   Si521   1.898   .     S
C509   C510    1.383   .     A
C509   H513    1.087   .     S
C510   H514    1.085   .     S
H511   C506    1.084   1_556 S
C515   C516    1.405   .     A
C515   C520    1.384   .     A
C515   H553    1.086   .     S
C516   C517    1.408   .     A
C516   Si521   1.898   .     S
C517   C518    1.383   .     A
C517   H554    1.087   .     S
C518   C519    1.398   .     A
C518   H555    1.085   .     S
C519   C520    1.397   .     A
C519   C1048   1.472   1_554 S
C520   H556    1.085   .     S
Si521  C522    1.898   .     S
Si521  C533    1.899   .     S
C522   C523    1.405   .     A
C522   C527    1.408   .     A
C523   C524    1.385   .     A
C523   H557    1.086   .     S
C524   C525    1.398   .     A
C524   H558    1.085   .     S
C525   C526    1.399   .     A
C525   C909    1.472   1_554 S
C526   C527    1.383   .     A
C526   H559    1.084   1_554 S
C527   H560    1.087   .     S
C528   C529    1.385   .     A
C528   C533    1.404   .     A
C528   H561    1.086   .     S
C529   C530    1.404   .     A
C529   H562    1.087   .     S
C530   C531    1.408   .     A
C530   Si534   1.898   .     S
C531   C532    1.383   .     A
C531   H563    1.087   .     S
C532   C533    1.408   .     A
C532   H564    1.087   .     S
Si534  C538    1.902   .     S
Si534  C541    1.899   .     S
Si534  C552    1.900   .     S
C535   C145    1.473   1_565 S
C535   C536    1.397   .     A
C535   C540    1.397   .     A
C536   C537    1.383   .     A
C536   H565    1.085   .     S
C537   C538    1.407   .     A
C537   H566    1.086   .     S
C538   C539    1.406   .     A
C539   C540    1.385   .     A
C539   H567    1.086   .     S
C540   H568    1.085   .     S
C541   C542    1.405   .     A
C541   C546    1.407   .     A
C542   C543    1.384   .     A
C542   H569    1.086   .     S
C543   C544    1.397   .     A
C543   H570    1.085   .     S
C544   C545    1.398   .     A
C545   C546    1.384   .     A
C545   H571    1.085   .     S
C546   H572    1.087   .     S
C547   C548    1.383   .     A
C547   C552    1.408   .     A
C547   H573    1.087   .     S
C548   C549    1.398   .     A
C548   H574    1.085   .     S
C549   C550    1.397   .     A
C550   C551    1.384   .     A
C550   H575    1.085   .     S
C551   C552    1.406   .     A
C551   H576    1.086   .     S
H559   C526    1.084   1_556 S
C577   C578    1.397   .     A
C577   C582    1.398   .     A
C577   C967    1.473   1_545 S
C578   C579    1.385   .     A
C578   H583    1.085   .     S
C579   C580    1.405   .     A
C579   H584    1.086   .     S
C580   C581    1.408   .     A
C580   Si593   1.898   .     S
C581   C582    1.383   .     A
C581   H585    1.087   .     S
C582   H586    1.085   .     S
C587   C588    1.405   .     A
C587   C592    1.384   .     A
C587   H625    1.086   .     S
C588   C589    1.408   .     A
C588   Si593   1.898   .     S
C589   C590    1.384   .     A
C589   H626    1.087   .     S
C590   C591    1.398   .     A
C590   H627    1.085   .     S
C591   C592    1.397   .     A
C591   C688    1.473   .     S
C592   H628    1.085   .     S
Si593  C594    1.899   .     S
Si593  C605    1.902   .     S
C594   C595    1.407   .     A
C594   C599    1.406   .     A
C595   C596    1.383   .     A
C595   H629    1.087   .     S
C596   C597    1.398   .     A
C596   H630    1.085   .     S
C597   C598    1.397   .     A
C597   C837    1.473   .     S
C598   C599    1.384   .     A
C598   H631    1.085   .     S
C599   H632    1.086   .     S
C600   C601    1.385   .     A
C600   C605    1.404   .     A
C600   H633    1.086   .     S
C601   C602    1.405   .     A
C601   H634    1.087   .     S
C602   C603    1.407   .     A
C602   Si606   1.899   .     S
C603   C604    1.384   .     A
C603   H635    1.087   .     S
C604   C605    1.407   .     A
C604   H636    1.087   .     S
Si606  C610    1.900   .     S
Si606  C613    1.899   .     S
Si606  C624    1.900   .     S
C607   C361    1.473   1_546 S
C607   C608    1.397   .     A
C607   C612    1.397   .     A
C608   C609    1.383   .     A
C608   H637    1.084   1_556 S
C609   C610    1.407   .     A
C609   H638    1.087   .     S
C610   C611    1.405   .     A
C611   C612    1.384   .     A
C611   H639    1.086   .     S
C612   H640    1.085   1_545 S
C613   C614    1.406   .     A
C613   C618    1.407   .     A
C614   C615    1.384   .     A
C614   H641    1.086   .     S
C615   C616    1.398   .     A
C615   H642    1.085   .     S
C616   C87     1.472   1_556 S
C616   C617    1.398   .     A
C617   C618    1.383   .     A
C617   H643    1.085   .     S
C618   H644    1.087   .     S
C619   C620    1.384   .     A
C619   C624    1.407   .     A
C619   H645    1.086   .     S
C620   C621    1.398   .     A
C620   H646    1.084   1_556 S
C621   C237    1.472   1_556 S
C621   C622    1.398   .     A
C622   C623    1.384   .     A
C622   H647    1.085   .     S
C623   C624    1.406   .     A
C623   H648    1.086   .     S
H637   C608    1.084   1_554 S
H640   C612    1.085   1_565 S
H646   C620    1.084   1_554 S
C649   C650    1.397   .     A
C649   C654    1.398   .     A
C650   C651    1.384   .     A
C650   H655    1.084   .     S
C651   C652    1.405   .     A
C651   H656    1.086   .     S
C652   C653    1.408   .     A
C652   Si665   1.898   .     S
C653   C654    1.383   .     A
C653   H657    1.087   .     S
C654   H658    1.085   .     S
C659   C660    1.405   .     A
C659   C664    1.384   .     A
C659   H697    1.086   .     S
C660   C661    1.408   .     A
C660   Si665   1.898   .     S
C661   C662    1.383   .     A
C661   H698    1.087   .     S
C662   C663    1.398   .     A
C662   H699    1.085   .     S
C663   C664    1.397   .     A
C664   H700    1.085   .     S
Si665  C666    1.898   .     S
Si665  C677    1.899   .     S
C666   C667    1.405   .     A
C666   C671    1.408   .     A
C667   C668    1.385   .     A
C667   H701    1.086   .     S
C668   C669    1.398   .     A
C668   H702    1.085   1_455 S
C669   C189    1.472   1_455 S
C669   C670    1.399   .     A
C670   C671    1.383   .     A
C670   H703    1.084   .     S
C671   H704    1.087   .     S
C672   C673    1.385   .     A
C672   C677    1.404   .     A
C672   H705    1.086   .     S
C673   C674    1.404   .     A
C673   H706    1.087   .     S
C674   C675    1.408   .     A
C674   Si678   1.898   .     S
C675   C676    1.383   .     A
C675   H707    1.087   .     S
C676   C677    1.408   .     A
C676   H708    1.087   .     S
Si678  C682    1.902   .     S
Si678  C685    1.899   .     S
Si678  C696    1.900   .     S
C679   C680    1.397   .     A
C679   C684    1.397   .     A
C679   C865    1.473   .     S
C680   C681    1.383   .     A
C680   H709    1.085   .     S
C681   C682    1.407   .     A
C681   H710    1.086   .     S
C682   C683    1.406   .     A
C683   C684    1.385   .     A
C683   H711    1.086   .     S
C684   H712    1.085   .     S
C685   C686    1.405   .     A
C685   C690    1.407   .     A
C686   C687    1.384   .     A
C686   H713    1.086   .     S
C687   C688    1.397   .     A
C687   H714    1.085   .     S
C688   C689    1.398   .     A
C689   C690    1.384   .     A
C689   H715    1.085   .     S
C690   H716    1.087   .     S
C691   C692    1.383   .     A
C691   C696    1.408   .     A
C691   H717    1.087   .     S
C692   C693    1.398   .     A
C692   H718    1.085   .     S
C693   C694    1.397   .     A
C693   C741    1.473   1_455 S
C694   C695    1.384   .     A
C694   H719    1.085   .     S
C695   C696    1.406   .     A
C695   H720    1.086   .     S
H702   C668    1.085   1_655 S
C721   C722    1.397   .     A
C721   C726    1.398   .     A
C721   C1111   1.473   1_545 S
C722   C723    1.385   .     A
C722   H727    1.085   .     S
C723   C724    1.405   .     A
C723   H728    1.086   .     S
C724   C725    1.408   .     A
C724   Si737   1.898   .     S
C725   C726    1.383   .     A
C725   H729    1.087   .     S
C726   H730    1.085   .     S
C731   C732    1.405   .     A
C731   C736    1.384   .     A
C731   H769    1.086   .     S
C732   C733    1.408   .     A
C732   Si737   1.898   .     S
C733   C734    1.384   .     A
C733   H770    1.087   .     S
C734   C735    1.398   .     A
C734   H771    1.085   .     S
C735   C736    1.397   .     A
C735   C832    1.473   .     S
C736   H772    1.085   .     S
Si737  C738    1.899   .     S
Si737  C749    1.902   .     S
C738   C739    1.407   .     A
C738   C743    1.406   .     A
C739   C740    1.383   .     A
C739   H773    1.087   .     S
C740   C741    1.398   .     A
C740   H774    1.085   .     S
C741   C693    1.473   1_655 S
C741   C742    1.397   .     A
C742   C743    1.384   .     A
C742   H775    1.085   .     S
C743   H776    1.086   .     S
C744   C745    1.385   .     A
C744   C749    1.404   .     A
C744   H777    1.086   .     S
C745   C746    1.405   .     A
C745   H778    1.087   .     S
C746   C747    1.407   .     A
C746   Si750   1.899   .     S
C747   C748    1.384   .     A
C747   H779    1.087   .     S
C748   C749    1.407   .     A
C748   H780    1.087   .     S
Si750  C754    1.900   .     S
Si750  C757    1.899   .     S
Si750  C768    1.900   .     S
C751   C505    1.473   1_546 S
C751   C752    1.397   .     A
C751   C756    1.397   .     A
C752   C753    1.383   .     A
C752   H781    1.084   1_556 S
C753   C754    1.407   .     A
C753   H782    1.087   .     S
C754   C755    1.405   .     A
C755   C756    1.384   .     A
C755   H783    1.086   .     S
C756   H784    1.085   1_545 S
C757   C758    1.406   .     A
C757   C762    1.407   .     A
C758   C759    1.384   .     A
C758   H785    1.086   .     S
C759   C760    1.398   .     A
C759   H786    1.085   .     S
C760   C231    1.472   1_556 S
C760   C761    1.398   .     A
C761   C762    1.383   .     A
C761   H787    1.085   .     S
C762   H788    1.087   .     S
C763   C764    1.384   .     A
C763   C768    1.407   .     A
C763   H789    1.086   .     S
C764   C765    1.398   .     A
C764   H790    1.084   1_556 S
C765   C93     1.472   1_656 S
C765   C766    1.398   .     A
C766   C767    1.384   .     A
C766   H791    1.085   1_655 S
C767   C768    1.406   .     A
C767   H792    1.086   .     S
H781   C752    1.084   1_554 S
H784   C756    1.085   1_565 S
H790   C764    1.084   1_554 S
H791   C766    1.085   1_455 S
C793   C794    1.397   .     A
C793   C798    1.398   .     A
C794   C795    1.384   .     A
C794   H799    1.084   .     S
C795   C796    1.405   .     A
C795   H800    1.086   .     S
C796   C797    1.408   .     A
C796   Si809   1.898   .     S
C797   C798    1.383   .     A
C797   H801    1.087   .     S
C798   H802    1.085   .     S
C803   C804    1.405   .     A
C803   C808    1.384   .     A
C803   H841    1.086   .     S
C804   C805    1.408   .     A
C804   Si809   1.898   .     S
C805   C806    1.383   .     A
C805   H842    1.087   .     S
C806   C807    1.398   .     A
C806   H843    1.085   .     S
C807   C808    1.397   .     A
C808   H844    1.085   .     S
Si809  C810    1.898   .     S
Si809  C821    1.899   .     S
C810   C811    1.405   .     A
C810   C815    1.408   .     A
C811   C812    1.385   .     A
C811   H845    1.086   .     S
C812   C813    1.398   .     A
C812   H846    1.085   .     S
C813   C814    1.399   .     A
C814   C815    1.383   .     A
C814   H847    1.084   .     S
C815   H848    1.087   .     S
C816   C817    1.385   .     A
C816   C821    1.404   .     A
C816   H849    1.086   .     S
C817   C818    1.404   .     A
C817   H850    1.087   .     S
C818   C819    1.408   .     A
C818   Si822   1.898   .     S
C819   C820    1.383   .     A
C819   H851    1.087   .     S
C820   C821    1.408   .     A
C820   H852    1.087   .     S
Si822  C826    1.902   .     S
Si822  C829    1.899   .     S
Si822  C840    1.900   .     S
C823   C824    1.397   .     A
C823   C828    1.397   .     A
C823   C1009   1.473   .     S
C824   C825    1.383   .     A
C824   H853    1.085   .     S
C825   C826    1.407   .     A
C825   H854    1.086   .     S
C826   C827    1.406   .     A
C827   C828    1.385   .     A
C827   H855    1.086   .     S
C828   H856    1.085   .     S
C829   C830    1.405   .     A
C829   C834    1.407   .     A
C830   C831    1.384   .     A
C830   H857    1.086   .     S
C831   C832    1.397   .     A
C831   H858    1.085   .     S
C832   C833    1.398   .     A
C833   C834    1.384   .     A
C833   H859    1.085   .     S
C834   H860    1.087   .     S
C835   C836    1.383   .     A
C835   C840    1.408   .     A
C835   H861    1.087   .     S
C836   C837    1.398   .     A
C836   H862    1.085   .     S
C837   C838    1.397   .     A
C838   C839    1.384   .     A
C838   H863    1.085   .     S
C839   C840    1.406   .     A
C839   H864    1.086   .     S
C865   C866    1.397   .     A
C865   C870    1.398   .     A
C866   C867    1.385   .     A
C866   H871    1.085   .     S
C867   C868    1.405   .     A
C867   H872    1.086   .     S
C868   C869    1.408   .     A
C868   Si881   1.898   .     S
C869   C870    1.383   .     A
C869   H873    1.087   .     S
C870   H874    1.085   .     S
C875   C876    1.405   .     A
C875   C880    1.384   .     A
C875   H913    1.086   .     S
C876   C877    1.408   .     A
C876   Si881   1.898   .     S
C877   C878    1.384   .     A
C877   H914    1.087   .     S
C878   C879    1.398   .     A
C878   H915    1.085   .     S
C879   C880    1.397   .     A
C879   C976    1.473   .     S
C880   H916    1.085   .     S
Si881  C882    1.899   .     S
Si881  C893    1.902   .     S
C882   C883    1.407   .     A
C882   C887    1.406   .     A
C883   C884    1.383   .     A
C883   H917    1.087   .     S
C884   C885    1.398   .     A
C884   H918    1.085   .     S
C885   C886    1.397   .     A
C885   C1125   1.473   .     S
C886   C887    1.384   .     A
C886   H919    1.085   .     S
C887   H920    1.086   .     S
C888   C889    1.385   .     A
C888   C893    1.404   .     A
C888   H921    1.086   .     S
C889   C890    1.405   .     A
C889   H922    1.087   .     S
C890   C891    1.407   .     A
C890   Si894   1.899   .     S
C891   C892    1.384   .     A
C891   H923    1.087   .     S
C892   C893    1.407   .     A
C892   H924    1.087   .     S
Si894  C898    1.900   .     S
Si894  C901    1.899   .     S
Si894  C912    1.900   .     S
C895   C73     1.473   1_556 S
C895   C896    1.397   .     A
C895   C900    1.397   .     A
C896   C897    1.383   .     A
C896   H925    1.084   1_556 S
C897   C898    1.407   .     A
C897   H926    1.087   .     S
C898   C899    1.405   .     A
C899   C900    1.384   .     A
C899   H927    1.086   .     S
C900   H928    1.085   .     S
C901   C902    1.406   .     A
C901   C906    1.407   .     A
C902   C903    1.384   .     A
C902   H929    1.086   .     S
C903   C904    1.398   .     A
C903   H930    1.085   .     S
C904   C375    1.472   1_556 S
C904   C905    1.398   .     A
C905   C906    1.383   .     A
C905   H931    1.085   .     S
C906   H932    1.087   .     S
C907   C908    1.384   .     A
C907   C912    1.407   .     A
C907   H933    1.086   .     S
C908   C909    1.398   .     A
C908   H934    1.084   1_556 S
C909   C525    1.472   1_556 S
C909   C910    1.398   .     A
C910   C911    1.384   .     A
C910   H935    1.085   .     S
C911   C912    1.406   .     A
C911   H936    1.086   .     S
H925   C896    1.084   1_554 S
H934   C908    1.084   1_554 S
C937   C31     1.473   1_565 S
C937   C938    1.397   .     A
C937   C942    1.398   .     A
C938   C939    1.384   .     A
C938   H943    1.084   .     S
C939   C940    1.405   .     A
C939   H944    1.086   .     S
C940   C941    1.408   .     A
C940   Si953   1.898   .     S
C941   C942    1.383   .     A
C941   H945    1.087   .     S
C942   H946    1.085   .     S
C947   C948    1.405   .     A
C947   C952    1.384   .     A
C947   H985    1.086   .     S
C948   C949    1.408   .     A
C948   Si953   1.898   .     S
C949   C950    1.383   .     A
C949   H986    1.087   .     S
C950   C951    1.398   .     A
C950   H987    1.085   .     S
C951   C952    1.397   .     A
C952   H988    1.085   .     S
Si953  C954    1.898   .     S
Si953  C965    1.899   .     S
C954   C955    1.405   .     A
C954   C959    1.408   .     A
C955   C956    1.385   .     A
C955   H989    1.086   .     S
C956   C957    1.398   .     A
C956   H990    1.085   1_455 S
C957   C477    1.472   1_455 S
C957   C958    1.399   .     A
C958   C959    1.383   .     A
C958   H991    1.084   .     S
C959   H992    1.087   .     S
C960   C961    1.385   .     A
C960   C965    1.404   .     A
C960   H993    1.086   .     S
C961   C962    1.404   .     A
C961   H994    1.087   .     S
C962   C963    1.408   .     A
C962   Si966   1.898   .     S
C963   C964    1.383   .     A
C963   H995    1.087   .     S
C964   C965    1.408   .     A
C964   H996    1.087   .     S
Si966  C970    1.902   .     S
Si966  C973    1.899   .     S
Si966  C984    1.900   .     S
C967   C577    1.473   1_565 S
C967   C968    1.397   .     A
C967   C972    1.397   .     A
C968   C969    1.383   .     A
C968   H997    1.085   .     S
C969   C970    1.407   .     A
C969   H998    1.086   .     S
C970   C971    1.406   .     A
C971   C972    1.385   .     A
C971   H999    1.086   .     S
C972   H1000   1.085   .     S
C973   C974    1.405   .     A
C973   C978    1.407   .     A
C974   C975    1.384   .     A
C974   H1001   1.086   .     S
C975   C976    1.397   .     A
C975   H1002   1.085   .     S
C976   C977    1.398   .     A
C977   C978    1.384   .     A
C977   H1003   1.085   .     S
C978   H1004   1.087   .     S
C979   C980    1.383   .     A
C979   C984    1.408   .     A
C979   H1005   1.087   .     S
C980   C981    1.398   .     A
C980   H1006   1.085   .     S
C981   C982    1.397   .     A
C981   C1029   1.473   1_455 S
C982   C983    1.384   .     A
C982   H1007   1.085   .     S
C983   C984    1.406   .     A
C983   H1008   1.086   .     S
H990   C956    1.085   1_655 S
C1009  C1010   1.397   .     A
C1009  C1014   1.398   .     A
C1010  C1011   1.385   .     A
C1010  H1015   1.085   .     S
C1011  C1012   1.405   .     A
C1011  H1016   1.086   .     S
C1012  C1013   1.408   .     A
C1012  Si1025  1.898   .     S
C1013  C1014   1.383   .     A
C1013  H1017   1.087   .     S
C1014  H1018   1.085   .     S
C1019  C1020   1.405   .     A
C1019  C1024   1.384   .     A
C1019  H1057   1.086   .     S
C1020  C1021   1.408   .     A
C1020  Si1025  1.898   .     S
C1021  C1022   1.384   .     A
C1021  H1058   1.087   .     S
C1022  C1023   1.398   .     A
C1022  H1059   1.085   .     S
C1023  C1024   1.397   .     A
C1023  C1120   1.473   .     S
C1024  H1060   1.085   .     S
Si1025 C1026   1.899   .     S
Si1025 C1037   1.902   .     S
C1026  C1027   1.407   .     A
C1026  C1031   1.406   .     A
C1027  C1028   1.383   .     A
C1027  H1061   1.087   .     S
C1028  C1029   1.398   .     A
C1028  H1062   1.085   .     S
C1029  C981    1.473   1_655 S
C1029  C1030   1.397   .     A
C1030  C1031   1.384   .     A
C1030  H1063   1.085   .     S
C1031  H1064   1.086   .     S
C1032  C1033   1.385   .     A
C1032  C1037   1.404   .     A
C1032  H1065   1.086   .     S
C1033  C1034   1.405   .     A
C1033  H1066   1.087   .     S
C1034  C1035   1.407   .     A
C1034  Si1038  1.899   .     S
C1035  C1036   1.384   .     A
C1035  H1067   1.087   .     S
C1036  C1037   1.407   .     A
C1036  H1068   1.087   .     S
Si1038 C1042   1.900   .     S
Si1038 C1045   1.899   .     S
Si1038 C1056   1.900   .     S
C1039  C217    1.473   1_556 S
C1039  C1040   1.397   .     A
C1039  C1044   1.397   .     A
C1040  C1041   1.383   .     A
C1040  H1069   1.084   1_556 S
C1041  C1042   1.407   .     A
C1041  H1070   1.087   .     S
C1042  C1043   1.405   .     A
C1043  C1044   1.384   .     A
C1043  H1071   1.086   .     S
C1044  H1072   1.085   .     S
C1045  C1046   1.406   .     A
C1045  C1050   1.407   .     A
C1046  C1047   1.384   .     A
C1046  H1073   1.086   .     S
C1047  C1048   1.398   .     A
C1047  H1074   1.085   .     S
C1048  C519    1.472   1_556 S
C1048  C1049   1.398   .     A
C1049  C1050   1.383   .     A
C1049  H1075   1.085   .     S
C1050  H1076   1.087   .     S
C1051  C1052   1.384   .     A
C1051  C1056   1.407   .     A
C1051  H1077   1.086   .     S
C1052  C1053   1.398   .     A
C1052  H1078   1.084   1_556 S
C1053  C381    1.472   1_656 S
C1053  C1054   1.398   .     A
C1054  C1055   1.384   .     A
C1054  H1079   1.085   1_655 S
C1055  C1056   1.406   .     A
C1055  H1080   1.086   .     S
H1069  C1040   1.084   1_554 S
H1078  C1052   1.084   1_554 S
H1079  C1054   1.085   1_455 S
C1081  C175    1.473   1_565 S
C1081  C1082   1.397   .     A
C1081  C1086   1.398   .     A
C1082  C1083   1.384   .     A
C1082  H1087   1.084   .     S
C1083  C1084   1.405   .     A
C1083  H1088   1.086   .     S
C1084  C1085   1.408   .     A
C1084  Si1097  1.898   .     S
C1085  C1086   1.383   .     A
C1085  H1089   1.087   .     S
C1086  H1090   1.085   .     S
C1091  C1092   1.405   .     A
C1091  C1096   1.384   .     A
C1091  H1129   1.086   .     S
C1092  C1093   1.408   .     A
C1092  Si1097  1.898   .     S
C1093  C1094   1.383   .     A
C1093  H1130   1.087   .     S
C1094  C1095   1.398   .     A
C1094  H1131   1.085   .     S
C1095  C1096   1.397   .     A
C1096  H1132   1.085   .     S
Si1097 C1098   1.898   .     S
Si1097 C1109   1.899   .     S
C1098  C1099   1.405   .     A
C1098  C1103   1.408   .     A
C1099  C1100   1.385   .     A
C1099  H1133   1.086   .     S
C1100  C1101   1.398   .     A
C1100  H1134   1.085   .     S
C1101  C1102   1.399   .     A
C1102  C1103   1.383   .     A
C1102  H1135   1.084   .     S
C1103  H1136   1.087   .     S
C1104  C1105   1.385   .     A
C1104  C1109   1.404   .     A
C1104  H1137   1.086   .     S
C1105  C1106   1.404   .     A
C1105  H1138   1.087   .     S
C1106  C1107   1.408   .     A
C1106  Si1110  1.898   .     S
C1107  C1108   1.383   .     A
C1107  H1139   1.087   .     S
C1108  C1109   1.408   .     A
C1108  H1140   1.087   .     S
Si1110 C1114   1.902   .     S
Si1110 C1117   1.899   .     S
Si1110 C1128   1.900   .     S
C1111  C721    1.473   1_565 S
C1111  C1112   1.397   .     A
C1111  C1116   1.397   .     A
C1112  C1113   1.383   .     A
C1112  H1141   1.085   .     S
C1113  C1114   1.407   .     A
C1113  H1142   1.086   .     S
C1114  C1115   1.406   .     A
C1115  C1116   1.385   .     A
C1115  H1143   1.086   .     S
C1116  H1144   1.085   .     S
C1117  C1118   1.405   .     A
C1117  C1122   1.407   .     A
C1118  C1119   1.384   .     A
C1118  H1145   1.086   .     S
C1119  C1120   1.397   .     A
C1119  H1146   1.085   .     S
C1120  C1121   1.398   .     A
C1121  C1122   1.384   .     A
C1121  H1147   1.085   .     S
C1122  H1148   1.087   .     S
C1123  C1124   1.383   .     A
C1123  C1128   1.408   .     A
C1123  H1149   1.087   .     S
C1124  C1125   1.398   .     A
C1124  H1150   1.085   .     S
C1125  C1126   1.397   .     A
C1126  C1127   1.384   .     A
C1126  H1151   1.085   .     S
C1127  C1128   1.406   .     A
C1127  H1152   1.086   .     S
