data_Si_bcs_opt
_audit_creation_date              2023-12-02
_audit_creation_method            'Materials Studio'
_symmetry_space_group_name_H-M    'P1'
_symmetry_Int_Tables_number       1
_symmetry_cell_setting            triclinic
loop_
_symmetry_equiv_pos_as_xyz
  x,y,z
_cell_length_a                    33.6357
_cell_length_b                    32.9953
_cell_length_c                    30.6855
_cell_angle_alpha                 89.4190
_cell_angle_beta                  90.1798
_cell_angle_gamma                 92.9901
loop_
_atom_site_label
_atom_site_type_symbol
_atom_site_fract_x
_atom_site_fract_y
_atom_site_fract_z
_atom_site_U_iso_or_equiv
_atom_site_adp_type
_atom_site_occupancy
C1     C     0.59576   0.64197   0.41989   0.00000  Uiso   1.00
C2     C     0.56834   0.66921   0.43447   0.00000  Uiso   1.00
C3     C     0.53289   0.65528   0.45345   0.00000  Uiso   1.00
C4     C     0.52304   0.61356   0.45890   0.00000  Uiso   1.00
C5     C     0.55219   0.58683   0.44673   0.00000  Uiso   1.00
C6     C     0.58771   0.60058   0.42777   0.00000  Uiso   1.00
H1     H     0.57407   0.70155   0.42915   0.00000  Uiso   1.00
H2     H     0.51183   0.67728   0.46340   0.00000  Uiso   1.00
H3     H     0.54655   0.55436   0.45142   0.00000  Uiso   1.00
H4     H     0.60917   0.57888   0.41834   0.00000  Uiso   1.00
C7     C     0.44478   0.62785   0.38889   0.00000  Uiso   1.00
C8     C     0.43598   0.60272   0.42517   0.00000  Uiso   1.00
C9     C     0.39685   0.58538   0.42764   0.00000  Uiso   1.00
C10    C     0.36811   0.59408   0.39719   0.00000  Uiso   1.00
C11    C     0.37711   0.62062   0.36240   0.00000  Uiso   1.00
C12    C     0.41615   0.63654   0.35805   0.00000  Uiso   1.00
Si1    Si    0.47052   0.59481   0.47324   0.00000  Uiso   1.00
C13    C     0.44932   0.62273   0.52116   0.00000  Uiso   1.00
C14    C     0.46881   0.62569   0.56177   0.00000  Uiso   1.00
C15    C     0.45026   0.63965   0.59851   0.00000  Uiso   1.00
C16    C     0.41113   0.65185   0.59639   0.00000  Uiso   1.00
C17    C     0.39219   0.65164   0.55582   0.00000  Uiso   1.00
C18    C     0.41081   0.63737   0.51935   0.00000  Uiso   1.00
C19    C     0.45301   0.50813   0.45959   0.00000  Uiso   1.00
C20    C     0.45216   0.46739   0.47105   0.00000  Uiso   1.00
C21    C     0.46852   0.45397   0.51050   0.00000  Uiso   1.00
C22    C     0.48583   0.48420   0.53761   0.00000  Uiso   1.00
C23    C     0.48628   0.52492   0.52634   0.00000  Uiso   1.00
C24    C     0.46973   0.53840   0.48700   0.00000  Uiso   1.00
Si2    Si    0.46728   0.39861   0.52789   0.00000  Uiso   1.00
C25    C     0.33996   0.33091   0.53512   0.00000  Uiso   1.00
C26    C     0.37346   0.31149   0.52091   0.00000  Uiso   1.00
C27    C     0.40987   0.33250   0.51691   0.00000  Uiso   1.00
C28    C     0.41499   0.37401   0.52674   0.00000  Uiso   1.00
C29    C     0.38057   0.39344   0.53904   0.00000  Uiso   1.00
C30    C     0.34395   0.37252   0.54322   0.00000  Uiso   1.00
C31    C     0.48896   0.39641   0.58508   0.00000  Uiso   1.00
C32    C     0.53068   0.39848   0.58949   0.00000  Uiso   1.00
C33    C     0.54910   0.39315   0.62925   0.00000  Uiso   1.00
C34    C     0.52672   0.38582   0.66716   0.00000  Uiso   1.00
C35    C     0.48529   0.38652   0.66389   0.00000  Uiso   1.00
C36    C     0.46700   0.39147   0.62380   0.00000  Uiso   1.00
C37    C     0.51559   0.33105   0.50954   0.00000  Uiso   1.00
C38    C     0.53492   0.30411   0.48375   0.00000  Uiso   1.00
C39    C     0.53771   0.31038   0.43880   0.00000  Uiso   1.00
C40    C     0.52112   0.34474   0.42081   0.00000  Uiso   1.00
C41    C     0.50218   0.37175   0.44687   0.00000  Uiso   1.00
C42    C     0.49850   0.36578   0.49211   0.00000  Uiso   1.00
H5     H     0.47466   0.64153   0.38499   0.00000  Uiso   1.00
H6     H     0.38858   0.56500   0.45454   0.00000  Uiso   1.00
H7     H     0.33825   0.58031   0.40045   0.00000  Uiso   1.00
H8     H     0.42387   0.65697   0.33110   0.00000  Uiso   1.00
H9     H     0.49920   0.61631   0.56484   0.00000  Uiso   1.00
H10    H     0.46626   0.64086   0.62927   0.00000  Uiso   1.00
H11    H     0.36194   0.66129   0.55306   0.00000  Uiso   1.00
H12    H     0.39455   0.63704   0.48874   0.00000  Uiso   1.00
H13    H     0.44017   0.51665   0.42850   0.00000  Uiso   1.00
H14    H     0.43823   0.44542   0.44885   0.00000  Uiso   1.00
H15    H     0.49906   0.47568   0.56849   0.00000  Uiso   1.00
H16    H     0.49981   0.54687   0.54881   0.00000  Uiso   1.00
H17    H     0.37130   0.27918   0.51449   0.00000  Uiso   1.00
H18    H     0.43522   0.31594   0.50659   0.00000  Uiso   1.00
H19    H     0.38264   0.42568   0.54610   0.00000  Uiso   1.00
H20    H     0.31825   0.38865   0.55320   0.00000  Uiso   1.00
H21    H     0.54920   0.40321   0.56073   0.00000  Uiso   1.00
H22    H     0.58130   0.39288   0.63050   0.00000  Uiso   1.00
H23    H     0.46702   0.38241   0.69284   0.00000  Uiso   1.00
H24    H     0.43469   0.39064   0.62245   0.00000  Uiso   1.00
H25    H     0.51370   0.32488   0.54434   0.00000  Uiso   1.00
H26    H     0.54736   0.27757   0.49855   0.00000  Uiso   1.00
H27    H     0.52359   0.35066   0.38605   0.00000  Uiso   1.00
H28    H     0.48990   0.39819   0.43159   0.00000  Uiso   1.00
C43    C     0.57145   0.55616   0.80988   0.00000  Uiso   1.00
C44    C     0.53151   0.54540   0.80090   0.00000  Uiso   1.00
C45    C     0.50950   0.51995   0.82874   0.00000  Uiso   1.00
C46    C     0.52583   0.50405   0.86724   0.00000  Uiso   1.00
C47    C     0.56667   0.51282   0.87404   0.00000  Uiso   1.00
C48    C     0.58902   0.53795   0.84598   0.00000  Uiso   1.00
H29    H     0.51695   0.55849   0.77291   0.00000  Uiso   1.00
H30    H     0.47828   0.51327   0.82115   0.00000  Uiso   1.00
H31    H     0.58116   0.50038   0.90251   0.00000  Uiso   1.00
H32    H     0.62040   0.54406   0.85282   0.00000  Uiso   1.00
C49    C     0.47355   0.41001   0.85105   0.00000  Uiso   1.00
C50    C     0.46960   0.42714   0.89244   0.00000  Uiso   1.00
C51    C     0.44116   0.40801   0.92048   0.00000  Uiso   1.00
C52    C     0.41667   0.37559   0.90716   0.00000  Uiso   1.00
C53    C     0.41904   0.36104   0.86468   0.00000  Uiso   1.00
C54    C     0.44876   0.37775   0.83729   0.00000  Uiso   1.00
Si3    Si    0.49027   0.47932   0.90865   0.00000  Uiso   1.00
C55    C     0.44543   0.51259   0.90448   0.00000  Uiso   1.00
C56    C     0.44739   0.55394   0.91556   0.00000  Uiso   1.00
C57    C     0.41861   0.58006   0.90260   0.00000  Uiso   1.00
C58    C     0.38612   0.56623   0.87729   0.00000  Uiso   1.00
C59    C     0.38231   0.52478   0.86828   0.00000  Uiso   1.00
C60    C     0.41108   0.49885   0.88160   0.00000  Uiso   1.00
C61    C     0.51314   0.44036   0.98895   0.00000  Uiso   1.00
C62    C     0.52130   0.43880   0.03315   0.00000  Uiso   1.00
C63    C     0.52841   0.47416   0.05777   0.00000  Uiso   1.00
C64    C     0.52856   0.51110   0.03446   0.00000  Uiso   1.00
C65    C     0.52012   0.51267   0.99031   0.00000  Uiso   1.00
C66    C     0.51092   0.47739   0.96618   0.00000  Uiso   1.00
Si4    Si    0.53146   0.47326   0.11956   0.00000  Uiso   1.00
C67    C     0.40842   0.42046   0.17668   0.00000  Uiso   1.00
C68    C     0.41769   0.41759   0.13250   0.00000  Uiso   1.00
C69    C     0.45225   0.43613   0.11572   0.00000  Uiso   1.00
C70    C     0.47977   0.45851   0.14186   0.00000  Uiso   1.00
C71    C     0.46933   0.46195   0.18601   0.00000  Uiso   1.00
C72    C     0.43472   0.44355   0.20302   0.00000  Uiso   1.00
C73    C     0.55575   0.52341   0.13812   0.00000  Uiso   1.00
C74    C     0.59581   0.53092   0.12577   0.00000  Uiso   1.00
C75    C     0.61797   0.56512   0.13888   0.00000  Uiso   1.00
C76    C     0.60104   0.59382   0.16528   0.00000  Uiso   1.00
C77    C     0.56106   0.58748   0.17696   0.00000  Uiso   1.00
C78    C     0.53902   0.55311   0.16367   0.00000  Uiso   1.00
C79    C     0.56703   0.43124   0.18862   0.00000  Uiso   1.00
C80    C     0.58379   0.39957   0.21053   0.00000  Uiso   1.00
C81    C     0.59739   0.36663   0.18765   0.00000  Uiso   1.00
C82    C     0.59551   0.36764   0.14221   0.00000  Uiso   1.00
C83    C     0.57882   0.39964   0.12047   0.00000  Uiso   1.00
C84    C     0.56300   0.43195   0.14290   0.00000  Uiso   1.00
H33    H     0.49578   0.42296   0.82861   0.00000  Uiso   1.00
H34    H     0.43715   0.41979   0.95304   0.00000  Uiso   1.00
H35    H     0.39398   0.36281   0.92907   0.00000  Uiso   1.00
H36    H     0.45201   0.36599   0.80467   0.00000  Uiso   1.00
H37    H     0.47268   0.56639   0.93406   0.00000  Uiso   1.00
H38    H     0.42181   0.61175   0.91169   0.00000  Uiso   1.00
H39    H     0.35742   0.51280   0.84895   0.00000  Uiso   1.00
H40    H     0.40706   0.46711   0.87283   0.00000  Uiso   1.00
H41    H     0.50783   0.41195   0.97180   0.00000  Uiso   1.00
H42    H     0.52157   0.40923   0.04898   0.00000  Uiso   1.00
H43    H     0.53483   0.53944   0.05150   0.00000  Uiso   1.00
H44    H     0.52023   0.54218   0.97427   0.00000  Uiso   1.00
H45    H     0.45807   0.43275   0.08119   0.00000  Uiso   1.00
H46    H     0.48894   0.47935   0.20787   0.00000  Uiso   1.00
H47    H     0.42799   0.44731   0.23726   0.00000  Uiso   1.00
H48    H     0.61007   0.50904   0.10554   0.00000  Uiso   1.00
H49    H     0.64869   0.56966   0.12846   0.00000  Uiso   1.00
H50    H     0.54729   0.60920   0.19764   0.00000  Uiso   1.00
H51    H     0.50814   0.54916   0.17381   0.00000  Uiso   1.00
H52    H     0.55614   0.45599   0.20761   0.00000  Uiso   1.00
H53    H     0.58511   0.39968   0.24586   0.00000  Uiso   1.00
H54    H     0.60708   0.34309   0.12363   0.00000  Uiso   1.00
H55    H     0.57785   0.39916   0.08512   0.00000  Uiso   1.00
C85    C     0.60219   0.20461   0.63800   0.00000  Uiso   1.00
C86    C     0.58480   0.24154   0.64469   0.00000  Uiso   1.00
C87    C     0.59184   0.26301   0.68264   0.00000  Uiso   1.00
C88    C     0.61659   0.24912   0.71604   0.00000  Uiso   1.00
C89    C     0.63556   0.21298   0.70753   0.00000  Uiso   1.00
C90    C     0.62855   0.19120   0.66969   0.00000  Uiso   1.00
H56    H     0.56434   0.25294   0.62066   0.00000  Uiso   1.00
H57    H     0.57690   0.29108   0.68646   0.00000  Uiso   1.00
H58    H     0.65604   0.20133   0.73148   0.00000  Uiso   1.00
H59    H     0.64360   0.16331   0.66483   0.00000  Uiso   1.00
C91    C     0.58555   0.19952   0.80811   0.00000  Uiso   1.00
C92    C     0.59420   0.24120   0.81414   0.00000  Uiso   1.00
C93    C     0.58569   0.25677   0.85543   0.00000  Uiso   1.00
C94    C     0.57101   0.23208   0.88901   0.00000  Uiso   1.00
C95    C     0.56360   0.19055   0.88255   0.00000  Uiso   1.00
C96    C     0.57037   0.17474   0.84137   0.00000  Uiso   1.00
Si5    Si    0.62024   0.27487   0.77145   0.00000  Uiso   1.00
C97    C     0.59228   0.32247   0.76235   0.00000  Uiso   1.00
C98    C     0.60974   0.35659   0.74049   0.00000  Uiso   1.00
C99    C     0.58771   0.38072   0.71350   0.00000  Uiso   1.00
C100   C     0.54715   0.37129   0.70631   0.00000  Uiso   1.00
C101   C     0.52832   0.34155   0.73303   0.00000  Uiso   1.00
C102   C     0.55040   0.31784   0.76039   0.00000  Uiso   1.00
C103   C     0.68651   0.28265   0.83208   0.00000  Uiso   1.00
C104   C     0.72626   0.28552   0.84399   0.00000  Uiso   1.00
C105   C     0.75684   0.28786   0.81277   0.00000  Uiso   1.00
C106   C     0.74482   0.28740   0.76886   0.00000  Uiso   1.00
C107   C     0.70505   0.28470   0.75694   0.00000  Uiso   1.00
C108   C     0.67449   0.28210   0.78813   0.00000  Uiso   1.00
Si6    Si    0.81134   0.29260   0.82914   0.00000  Uiso   1.00
C109   C     0.84404   0.40604   0.91584   0.00000  Uiso   1.00
C110   C     0.86582   0.37127   0.91951   0.00000  Uiso   1.00
C111   C     0.85364   0.33614   0.89792   0.00000  Uiso   1.00
C112   C     0.81916   0.33374   0.87185   0.00000  Uiso   1.00
C113   C     0.79593   0.36802   0.87170   0.00000  Uiso   1.00
C114   C     0.80802   0.40334   0.89300   0.00000  Uiso   1.00
C115   C     0.83988   0.31462   0.78014   0.00000  Uiso   1.00
C116   C     0.87071   0.29805   0.75659   0.00000  Uiso   1.00
C117   C     0.88887   0.31848   0.72159   0.00000  Uiso   1.00
C118   C     0.87706   0.35671   0.70863   0.00000  Uiso   1.00
C119   C     0.84626   0.37367   0.73155   0.00000  Uiso   1.00
C120   C     0.82832   0.35313   0.76624   0.00000  Uiso   1.00
C121   C     0.87038   0.23926   0.86075   0.00000  Uiso   1.00
C122   C     0.88374   0.20720   0.88516   0.00000  Uiso   1.00
C123   C     0.85706   0.17715   0.90208   0.00000  Uiso   1.00
C124   C     0.81671   0.17964   0.89195   0.00000  Uiso   1.00
C125   C     0.80348   0.21200   0.86781   0.00000  Uiso   1.00
C126   C     0.82966   0.24343   0.85217   0.00000  Uiso   1.00
H60    H     0.59106   0.18605   0.77670   0.00000  Uiso   1.00
H61    H     0.59088   0.28903   0.86139   0.00000  Uiso   1.00
H62    H     0.56499   0.24512   0.92047   0.00000  Uiso   1.00
H63    H     0.64163   0.36322   0.74314   0.00000  Uiso   1.00
H64    H     0.60261   0.40592   0.69612   0.00000  Uiso   1.00
H65    H     0.49654   0.33475   0.73001   0.00000  Uiso   1.00
H66    H     0.53502   0.29352   0.77881   0.00000  Uiso   1.00
H67    H     0.66417   0.28064   0.85762   0.00000  Uiso   1.00
H68    H     0.73386   0.28589   0.87845   0.00000  Uiso   1.00
H69    H     0.76718   0.28916   0.74335   0.00000  Uiso   1.00
H70    H     0.69749   0.28446   0.72248   0.00000  Uiso   1.00
H71    H     0.89352   0.37230   0.93777   0.00000  Uiso   1.00
H72    H     0.87206   0.31015   0.90061   0.00000  Uiso   1.00
H73    H     0.76803   0.36731   0.85372   0.00000  Uiso   1.00
H74    H     0.78958   0.42932   0.89133   0.00000  Uiso   1.00
H75    H     0.88081   0.26839   0.76568   0.00000  Uiso   1.00
H76    H     0.91285   0.30471   0.70452   0.00000  Uiso   1.00
H77    H     0.83588   0.40294   0.72163   0.00000  Uiso   1.00
H78    H     0.80440   0.36739   0.78307   0.00000  Uiso   1.00
H79    H     0.89219   0.26199   0.84851   0.00000  Uiso   1.00
H80    H     0.91528   0.20623   0.89226   0.00000  Uiso   1.00
H81    H     0.79531   0.15615   0.90324   0.00000  Uiso   1.00
H82    H     0.77179   0.21309   0.86130   0.00000  Uiso   1.00
C127   C     0.59538   0.85587   0.35657   0.00000  Uiso   1.00
C128   C     0.55463   0.86025   0.35090   0.00000  Uiso   1.00
C129   C     0.53262   0.87808   0.38279   0.00000  Uiso   1.00
C130   C     0.55002   0.89226   0.42185   0.00000  Uiso   1.00
C131   C     0.59167   0.89054   0.42522   0.00000  Uiso   1.00
C132   C     0.61391   0.87291   0.39339   0.00000  Uiso   1.00
H83    H     0.50083   0.88000   0.37762   0.00000  Uiso   1.00
H84    H     0.60682   0.90216   0.45420   0.00000  Uiso   1.00
H85    H     0.64569   0.87051   0.39811   0.00000  Uiso   1.00
C133   C     0.55322   0.83148   0.50448   0.00000  Uiso   1.00
C134   C     0.52910   0.86390   0.51377   0.00000  Uiso   1.00
C135   C     0.51640   0.86654   0.55726   0.00000  Uiso   1.00
C136   C     0.52876   0.84034   0.58946   0.00000  Uiso   1.00
C137   C     0.55458   0.80979   0.57989   0.00000  Uiso   1.00
C138   C     0.56564   0.80508   0.53650   0.00000  Uiso   1.00
Si7    Si    0.51885   0.90432   0.47111   0.00000  Uiso   1.00
C139   C     0.46544   0.90423   0.45064   0.00000  Uiso   1.00
C140   C     0.44924   0.94044   0.43600   0.00000  Uiso   1.00
C141   C     0.41522   0.94046   0.41055   0.00000  Uiso   1.00
C142   C     0.39559   0.90398   0.39835   0.00000  Uiso   1.00
C143   C     0.40966   0.86777   0.41494   0.00000  Uiso   1.00
C144   C     0.44372   0.86797   0.44036   0.00000  Uiso   1.00
C145   C     0.50618   0.97358   0.52372   0.00000  Uiso   1.00
C146   C     0.50406   0.01482   0.53012   0.00000  Uiso   1.00
C147   C     0.52546   0.04351   0.50393   0.00000  Uiso   1.00
C148   C     0.55180   0.02798   0.47356   0.00000  Uiso   1.00
C149   C     0.55383   0.98667   0.46705   0.00000  Uiso   1.00
C150   C     0.52984   0.95809   0.49069   0.00000  Uiso   1.00
Si8    Si    0.51290   0.09891   0.50383   0.00000  Uiso   1.00
C151   C     0.38704   0.11693   0.56790   0.00000  Uiso   1.00
C152   C     0.42099   0.13806   0.58392   0.00000  Uiso   1.00
C153   C     0.45829   0.13147   0.56730   0.00000  Uiso   1.00
C154   C     0.46374   0.10348   0.53396   0.00000  Uiso   1.00
C155   C     0.42928   0.08158   0.51926   0.00000  Uiso   1.00
C156   C     0.39190   0.08798   0.53569   0.00000  Uiso   1.00
C157   C     0.49694   0.11308   0.44642   0.00000  Uiso   1.00
C158   C     0.48166   0.15122   0.43730   0.00000  Uiso   1.00
C159   C     0.45549   0.15707   0.40316   0.00000  Uiso   1.00
C160   C     0.44288   0.12473   0.37655   0.00000  Uiso   1.00
C161   C     0.46050   0.08767   0.38252   0.00000  Uiso   1.00
C162   C     0.48678   0.08210   0.41654   0.00000  Uiso   1.00
C163   C     0.56004   0.17324   0.52868   0.00000  Uiso   1.00
C164   C     0.57880   0.19667   0.56066   0.00000  Uiso   1.00
C165   C     0.58926   0.17949   0.60065   0.00000  Uiso   1.00
C166   C     0.58310   0.13755   0.60621   0.00000  Uiso   1.00
C167   C     0.56438   0.11433   0.57419   0.00000  Uiso   1.00
C168   C     0.55089   0.13158   0.53498   0.00000  Uiso   1.00
H86    H     0.56323   0.82706   0.47136   0.00000  Uiso   1.00
H87    H     0.49669   0.89007   0.56635   0.00000  Uiso   1.00
H88    H     0.51837   0.84378   0.62258   0.00000  Uiso   1.00
H89    H     0.58529   0.78139   0.52785   0.00000  Uiso   1.00
H90    H     0.46405   0.96946   0.44396   0.00000  Uiso   1.00
H91    H     0.40410   0.96913   0.39959   0.00000  Uiso   1.00
H92    H     0.39475   0.83901   0.40631   0.00000  Uiso   1.00
H93    H     0.45436   0.83916   0.45169   0.00000  Uiso   1.00
H94    H     0.48780   0.95286   0.54385   0.00000  Uiso   1.00
H95    H     0.48431   0.02508   0.55520   0.00000  Uiso   1.00
H96    H     0.57026   0.04884   0.45365   0.00000  Uiso   1.00
H97    H     0.57362   0.97638   0.44203   0.00000  Uiso   1.00
H98    H     0.41807   0.16089   0.60873   0.00000  Uiso   1.00
H99    H     0.48377   0.14906   0.58024   0.00000  Uiso   1.00
H100   H     0.43180   0.05925   0.49373   0.00000  Uiso   1.00
H101   H     0.36621   0.07043   0.52329   0.00000  Uiso   1.00
H102   H     0.48933   0.17667   0.45846   0.00000  Uiso   1.00
H103   H     0.44308   0.18651   0.39853   0.00000  Uiso   1.00
H104   H     0.45284   0.06261   0.36093   0.00000  Uiso   1.00
H105   H     0.49880   0.05240   0.42064   0.00000  Uiso   1.00
H106   H     0.55157   0.18792   0.49846   0.00000  Uiso   1.00
H107   H     0.58479   0.22888   0.55473   0.00000  Uiso   1.00
H108   H     0.59142   0.12326   0.63666   0.00000  Uiso   1.00
H109   H     0.55907   0.08198   0.58023   0.00000  Uiso   1.00
C169   C     0.37209   0.39934   0.19422   0.00000  Uiso   1.00
C170   C     0.37103   0.38167   0.23584   0.00000  Uiso   1.00
C171   C     0.33677   0.36127   0.25130   0.00000  Uiso   1.00
C172   C     0.30161   0.35748   0.22637   0.00000  Uiso   1.00
C173   C     0.30350   0.37522   0.18448   0.00000  Uiso   1.00
C174   C     0.33755   0.39564   0.16883   0.00000  Uiso   1.00
H110   H     0.39749   0.38340   0.25619   0.00000  Uiso   1.00
H111   H     0.33740   0.34781   0.28376   0.00000  Uiso   1.00
H112   H     0.27749   0.37325   0.16341   0.00000  Uiso   1.00
H113   H     0.33704   0.40941   0.13660   0.00000  Uiso   1.00
C175   C     0.21088   0.39176   0.20825   0.00000  Uiso   1.00
C176   C     0.21322   0.34918   0.20907   0.00000  Uiso   1.00
C177   C     0.18843   0.32758   0.17958   0.00000  Uiso   1.00
C178   C     0.16508   0.34703   0.14939   0.00000  Uiso   1.00
C179   C     0.16513   0.38932   0.14746   0.00000  Uiso   1.00
C180   C     0.18761   0.41137   0.17842   0.00000  Uiso   1.00
Si9    Si    0.25353   0.33050   0.24690   0.00000  Uiso   1.00
C181   C     0.23982   0.34875   0.30318   0.00000  Uiso   1.00
C182   C     0.20678   0.32955   0.32443   0.00000  Uiso   1.00
C183   C     0.19007   0.34568   0.36112   0.00000  Uiso   1.00
C184   C     0.20591   0.38195   0.37868   0.00000  Uiso   1.00
C185   C     0.23983   0.40047   0.35935   0.00000  Uiso   1.00
C186   C     0.25616   0.38435   0.32238   0.00000  Uiso   1.00
C187   C     0.24921   0.24610   0.21594   0.00000  Uiso   1.00
C188   C     0.25730   0.20542   0.21887   0.00000  Uiso   1.00
C189   C     0.27735   0.18933   0.25489   0.00000  Uiso   1.00
C190   C     0.28646   0.21649   0.28898   0.00000  Uiso   1.00
C191   C     0.27752   0.25692   0.28647   0.00000  Uiso   1.00
C192   C     0.25927   0.27348   0.24946   0.00000  Uiso   1.00
Si10   Si    0.29501   0.13552   0.25542   0.00000  Uiso   1.00
C193   C     0.20906   0.03267   0.31739   0.00000  Uiso   1.00
C194   C     0.21864   0.03080   0.27325   0.00000  Uiso   1.00
C195   C     0.24190   0.06161   0.25347   0.00000  Uiso   1.00
C196   C     0.25709   0.09550   0.27672   0.00000  Uiso   1.00
C197   C     0.24615   0.09727   0.32090   0.00000  Uiso   1.00
C198   C     0.22276   0.06679   0.34077   0.00000  Uiso   1.00
C199   C     0.34032   0.13341   0.29282   0.00000  Uiso   1.00
C200   C     0.37013   0.16493   0.29452   0.00000  Uiso   1.00
C201   C     0.40361   0.16258   0.32065   0.00000  Uiso   1.00
C202   C     0.40928   0.12799   0.34602   0.00000  Uiso   1.00
C203   C     0.38056   0.09589   0.34394   0.00000  Uiso   1.00
C204   C     0.34703   0.09865   0.31811   0.00000  Uiso   1.00
C205   C     0.32873   0.08270   0.19455   0.00000  Uiso   1.00
C206   C     0.35147   0.07303   0.15907   0.00000  Uiso   1.00
C207   C     0.36119   0.10211   0.12685   0.00000  Uiso   1.00
C208   C     0.34521   0.14019   0.13010   0.00000  Uiso   1.00
C209   C     0.32267   0.14972   0.16584   0.00000  Uiso   1.00
C210   C     0.31436   0.12171   0.19981   0.00000  Uiso   1.00
H114   H     0.22863   0.41011   0.23112   0.00000  Uiso   1.00
H115   H     0.18759   0.29466   0.17955   0.00000  Uiso   1.00
H116   H     0.14683   0.32904   0.12681   0.00000  Uiso   1.00
H117   H     0.18804   0.44427   0.17803   0.00000  Uiso   1.00
H118   H     0.19342   0.30150   0.31134   0.00000  Uiso   1.00
H119   H     0.16438   0.33010   0.37621   0.00000  Uiso   1.00
H120   H     0.25272   0.42862   0.37246   0.00000  Uiso   1.00
H121   H     0.28194   0.40021   0.30769   0.00000  Uiso   1.00
H122   H     0.23496   0.25674   0.18650   0.00000  Uiso   1.00
H123   H     0.24803   0.18566   0.19218   0.00000  Uiso   1.00
H124   H     0.30115   0.20575   0.31816   0.00000  Uiso   1.00
H125   H     0.28538   0.27641   0.31388   0.00000  Uiso   1.00
H126   H     0.20761   0.00512   0.25410   0.00000  Uiso   1.00
H127   H     0.24859   0.05901   0.21904   0.00000  Uiso   1.00
H128   H     0.25673   0.12305   0.34032   0.00000  Uiso   1.00
H129   H     0.21588   0.06895   0.37516   0.00000  Uiso   1.00
H130   H     0.36693   0.19224   0.27500   0.00000  Uiso   1.00
H131   H     0.42574   0.18771   0.32108   0.00000  Uiso   1.00
H132   H     0.38403   0.06882   0.36366   0.00000  Uiso   1.00
H133   H     0.32527   0.07315   0.31796   0.00000  Uiso   1.00
H134   H     0.32302   0.05966   0.21965   0.00000  Uiso   1.00
H135   H     0.36332   0.04314   0.15734   0.00000  Uiso   1.00
H136   H     0.35106   0.16291   0.10482   0.00000  Uiso   1.00
H137   H     0.31207   0.18016   0.16770   0.00000  Uiso   1.00
C211   C     0.61062   0.33100   0.21180   0.00000  Uiso   1.00
C212   C     0.63191   0.33525   0.25081   0.00000  Uiso   1.00
C213   C     0.64005   0.30154   0.27572   0.00000  Uiso   1.00
C214   C     0.62746   0.26196   0.26318   0.00000  Uiso   1.00
C215   C     0.60766   0.25832   0.22296   0.00000  Uiso   1.00
C216   C     0.59945   0.29193   0.19775   0.00000  Uiso   1.00
H138   H     0.64197   0.36522   0.26179   0.00000  Uiso   1.00
H139   H     0.65614   0.30598   0.30624   0.00000  Uiso   1.00
H140   H     0.59773   0.22851   0.21131   0.00000  Uiso   1.00
H141   H     0.58295   0.28785   0.16754   0.00000  Uiso   1.00
C217   C     0.57280   0.16302   0.26543   0.00000  Uiso   1.00
C218   C     0.61352   0.17142   0.27376   0.00000  Uiso   1.00
C219   C     0.64027   0.14998   0.24870   0.00000  Uiso   1.00
C220   C     0.62748   0.12448   0.21539   0.00000  Uiso   1.00
C221   C     0.58703   0.11937   0.20513   0.00000  Uiso   1.00
C222   C     0.55985   0.13779   0.23198   0.00000  Uiso   1.00
Si11   Si    0.63254   0.21840   0.30389   0.00000  Uiso   1.00
C223   C     0.60152   0.23595   0.35115   0.00000  Uiso   1.00
C224   C     0.61589   0.24486   0.39319   0.00000  Uiso   1.00
C225   C     0.59475   0.26732   0.42226   0.00000  Uiso   1.00
C226   C     0.55824   0.28245   0.41040   0.00000  Uiso   1.00
C227   C     0.54235   0.27211   0.36963   0.00000  Uiso   1.00
C228   C     0.56347   0.24946   0.34097   0.00000  Uiso   1.00
C229   C     0.71541   0.23071   0.28626   0.00000  Uiso   1.00
C230   C     0.75591   0.22847   0.29278   0.00000  Uiso   1.00
C231   C     0.77137   0.21047   0.33049   0.00000  Uiso   1.00
C232   C     0.74348   0.19417   0.36075   0.00000  Uiso   1.00
C233   C     0.70286   0.19594   0.35393   0.00000  Uiso   1.00
C234   C     0.68742   0.21476   0.31675   0.00000  Uiso   1.00
Si12   Si    0.82727   0.21326   0.33929   0.00000  Uiso   1.00
C235   C     0.87967   0.11762   0.43547   0.00000  Uiso   1.00
C236   C     0.84538   0.10736   0.41147   0.00000  Uiso   1.00
C237   C     0.82772   0.13631   0.38597   0.00000  Uiso   1.00
C238   C     0.84304   0.17681   0.38359   0.00000  Uiso   1.00
C239   C     0.87600   0.18689   0.41038   0.00000  Uiso   1.00
C240   C     0.89403   0.15810   0.43558   0.00000  Uiso   1.00
C241   C     0.84243   0.26662   0.35745   0.00000  Uiso   1.00
C242   C     0.81446   0.29132   0.37637   0.00000  Uiso   1.00
C243   C     0.82585   0.32601   0.39915   0.00000  Uiso   1.00
C244   C     0.86609   0.33764   0.40460   0.00000  Uiso   1.00
C245   C     0.89423   0.31492   0.38372   0.00000  Uiso   1.00
C246   C     0.88262   0.28044   0.36066   0.00000  Uiso   1.00
C247   C     0.86317   0.15630   0.28365   0.00000  Uiso   1.00
C248   C     0.87969   0.14191   0.24605   0.00000  Uiso   1.00
C249   C     0.88744   0.16761   0.21027   0.00000  Uiso   1.00
C250   C     0.87854   0.20832   0.21390   0.00000  Uiso   1.00
C251   C     0.86206   0.22256   0.25180   0.00000  Uiso   1.00
C252   C     0.85344   0.19703   0.28791   0.00000  Uiso   1.00
H142   H     0.55066   0.17745   0.28476   0.00000  Uiso   1.00
H143   H     0.67205   0.15409   0.25480   0.00000  Uiso   1.00
H144   H     0.64927   0.10903   0.19662   0.00000  Uiso   1.00
H145   H     0.52818   0.13391   0.22540   0.00000  Uiso   1.00
H146   H     0.64476   0.23483   0.40329   0.00000  Uiso   1.00
H147   H     0.60756   0.27456   0.45392   0.00000  Uiso   1.00
H148   H     0.51340   0.28232   0.36017   0.00000  Uiso   1.00
H149   H     0.55048   0.24302   0.30915   0.00000  Uiso   1.00
H150   H     0.70513   0.24536   0.25672   0.00000  Uiso   1.00
H151   H     0.77617   0.24127   0.26811   0.00000  Uiso   1.00
H152   H     0.75380   0.17987   0.39045   0.00000  Uiso   1.00
H153   H     0.68266   0.18244   0.37822   0.00000  Uiso   1.00
H154   H     0.83335   0.07620   0.41147   0.00000  Uiso   1.00
H155   H     0.80166   0.12703   0.36680   0.00000  Uiso   1.00
H156   H     0.88833   0.21795   0.41103   0.00000  Uiso   1.00
H157   H     0.91972   0.16700   0.45539   0.00000  Uiso   1.00
H158   H     0.78291   0.28281   0.37380   0.00000  Uiso   1.00
H159   H     0.80318   0.34398   0.41331   0.00000  Uiso   1.00
H160   H     0.92569   0.32343   0.38688   0.00000  Uiso   1.00
H161   H     0.90543   0.26331   0.34538   0.00000  Uiso   1.00
H162   H     0.85747   0.13504   0.31042   0.00000  Uiso   1.00
H163   H     0.88582   0.11003   0.24408   0.00000  Uiso   1.00
H164   H     0.88482   0.22918   0.18694   0.00000  Uiso   1.00
H165   H     0.85565   0.25445   0.25335   0.00000  Uiso   1.00
C253   C     0.57178   0.78524   0.61488   0.00000  Uiso   1.00
C254   C     0.58237   0.80363   0.65435   0.00000  Uiso   1.00
C255   C     0.60053   0.78209   0.68699   0.00000  Uiso   1.00
C256   C     0.60927   0.74106   0.68231   0.00000  Uiso   1.00
C257   C     0.59826   0.72310   0.64243   0.00000  Uiso   1.00
C258   C     0.57991   0.74448   0.60957   0.00000  Uiso   1.00
H166   H     0.57705   0.83540   0.65925   0.00000  Uiso   1.00
H167   H     0.60833   0.79774   0.71705   0.00000  Uiso   1.00
H168   H     0.60427   0.69156   0.63678   0.00000  Uiso   1.00
H169   H     0.57158   0.72919   0.57950   0.00000  Uiso   1.00
C259   C     0.59651   0.63440   0.72219   0.00000  Uiso   1.00
C260   C     0.62250   0.66210   0.74387   0.00000  Uiso   1.00
C261   C     0.63482   0.65037   0.78593   0.00000  Uiso   1.00
C262   C     0.62011   0.61514   0.80603   0.00000  Uiso   1.00
C263   C     0.59216   0.58921   0.78497   0.00000  Uiso   1.00
C264   C     0.58185   0.59878   0.74204   0.00000  Uiso   1.00
Si13   Si    0.63719   0.71691   0.72904   0.00000  Uiso   1.00
C265   C     0.62049   0.74439   0.77968   0.00000  Uiso   1.00
C266   C     0.64298   0.77000   0.80765   0.00000  Uiso   1.00
C267   C     0.62595   0.78828   0.84305   0.00000  Uiso   1.00
C268   C     0.58553   0.78145   0.85224   0.00000  Uiso   1.00
C269   C     0.56276   0.75539   0.82523   0.00000  Uiso   1.00
C270   C     0.57987   0.73751   0.78995   0.00000  Uiso   1.00
C271   C     0.71856   0.69190   0.72823   0.00000  Uiso   1.00
C272   C     0.75873   0.69574   0.71861   0.00000  Uiso   1.00
C273   C     0.77599   0.73055   0.69779   0.00000  Uiso   1.00
C274   C     0.75029   0.76169   0.68829   0.00000  Uiso   1.00
C275   C     0.71009   0.75797   0.69817   0.00000  Uiso   1.00
C276   C     0.69273   0.72284   0.71817   0.00000  Uiso   1.00
Si14   Si    0.83094   0.73076   0.68360   0.00000  Uiso   1.00
C277   C     0.89111   0.67675   0.80974   0.00000  Uiso   1.00
C278   C     0.90506   0.66793   0.76827   0.00000  Uiso   1.00
C279   C     0.88889   0.68533   0.73152   0.00000  Uiso   1.00
C280   C     0.85810   0.71245   0.73406   0.00000  Uiso   1.00
C281   C     0.84589   0.72245   0.77626   0.00000  Uiso   1.00
C282   C     0.86188   0.70513   0.81318   0.00000  Uiso   1.00
C283   C     0.85245   0.78205   0.66434   0.00000  Uiso   1.00
C284   C     0.83634   0.80211   0.62820   0.00000  Uiso   1.00
C285   C     0.85364   0.83794   0.61164   0.00000  Uiso   1.00
C286   C     0.88845   0.85544   0.63007   0.00000  Uiso   1.00
C287   C     0.90444   0.83643   0.66653   0.00000  Uiso   1.00
C288   C     0.88677   0.80075   0.68320   0.00000  Uiso   1.00
C289   C     0.87710   0.69059   0.62039   0.00000  Uiso   1.00
C290   C     0.88949   0.65690   0.59876   0.00000  Uiso   1.00
C291   C     0.86496   0.62146   0.59651   0.00000  Uiso   1.00
C292   C     0.82665   0.62203   0.61383   0.00000  Uiso   1.00
C293   C     0.81452   0.65579   0.63561   0.00000  Uiso   1.00
C294   C     0.83977   0.69069   0.64105   0.00000  Uiso   1.00
H170   H     0.58670   0.64114   0.68929   0.00000  Uiso   1.00
H171   H     0.65546   0.67029   0.80411   0.00000  Uiso   1.00
H172   H     0.62910   0.60868   0.83924   0.00000  Uiso   1.00
H173   H     0.56150   0.57855   0.72403   0.00000  Uiso   1.00
H174   H     0.67452   0.77605   0.80145   0.00000  Uiso   1.00
H175   H     0.64437   0.80793   0.86390   0.00000  Uiso   1.00
H176   H     0.53117   0.74998   0.83133   0.00000  Uiso   1.00
H177   H     0.56110   0.71780   0.76935   0.00000  Uiso   1.00
H178   H     0.70694   0.66406   0.74379   0.00000  Uiso   1.00
H179   H     0.77732   0.67096   0.72755   0.00000  Uiso   1.00
H180   H     0.76196   0.78951   0.67271   0.00000  Uiso   1.00
H181   H     0.69155   0.78295   0.68986   0.00000  Uiso   1.00
H182   H     0.92779   0.64607   0.76459   0.00000  Uiso   1.00
H183   H     0.90001   0.67689   0.69987   0.00000  Uiso   1.00
H184   H     0.82274   0.74388   0.78023   0.00000  Uiso   1.00
H185   H     0.85137   0.71355   0.84505   0.00000  Uiso   1.00
H186   H     0.80977   0.78908   0.61237   0.00000  Uiso   1.00
H187   H     0.83990   0.85251   0.58400   0.00000  Uiso   1.00
H188   H     0.93155   0.84912   0.68141   0.00000  Uiso   1.00
H189   H     0.90032   0.78672   0.71135   0.00000  Uiso   1.00
H190   H     0.89726   0.71737   0.62203   0.00000  Uiso   1.00
H191   H     0.91874   0.65793   0.58387   0.00000  Uiso   1.00
H192   H     0.80671   0.59518   0.61186   0.00000  Uiso   1.00
H193   H     0.78485   0.65459   0.64957   0.00000  Uiso   1.00
C295   C     0.35126   0.88883   0.81224   0.00000  Uiso   1.00
C296   C     0.31667   0.90835   0.82244   0.00000  Uiso   1.00
C297   C     0.28213   0.90124   0.79849   0.00000  Uiso   1.00
C298   C     0.28011   0.87438   0.76316   0.00000  Uiso   1.00
C299   C     0.31627   0.85795   0.75109   0.00000  Uiso   1.00
C300   C     0.35093   0.86493   0.77484   0.00000  Uiso   1.00
H194   H     0.31610   0.92770   0.85077   0.00000  Uiso   1.00
H195   H     0.25565   0.91608   0.80855   0.00000  Uiso   1.00
H196   H     0.31692   0.83805   0.72312   0.00000  Uiso   1.00
H197   H     0.37785   0.85092   0.76479   0.00000  Uiso   1.00
C301   C     0.24311   0.87369   0.65147   0.00000  Uiso   1.00
C302   C     0.21646   0.85989   0.68421   0.00000  Uiso   1.00
C303   C     0.17752   0.84837   0.67052   0.00000  Uiso   1.00
C304   C     0.16612   0.85017   0.62722   0.00000  Uiso   1.00
C305   C     0.19314   0.86385   0.59511   0.00000  Uiso   1.00
C306   C     0.23180   0.87581   0.60805   0.00000  Uiso   1.00
Si15   Si    0.23057   0.85053   0.74329   0.00000  Uiso   1.00
C307   C     0.19267   0.87026   0.78254   0.00000  Uiso   1.00
C308   C     0.18268   0.85084   0.82230   0.00000  Uiso   1.00
C309   C     0.16405   0.87065   0.85553   0.00000  Uiso   1.00
C310   C     0.15449   0.91117   0.85073   0.00000  Uiso   1.00
C311   C     0.16193   0.93020   0.81043   0.00000  Uiso   1.00
C312   C     0.18052   0.91024   0.77735   0.00000  Uiso   1.00
C313   C     0.23255   0.76704   0.71410   0.00000  Uiso   1.00
C314   C     0.24619   0.72819   0.71522   0.00000  Uiso   1.00
C315   C     0.26726   0.71342   0.75123   0.00000  Uiso   1.00
C316   C     0.27208   0.73966   0.78687   0.00000  Uiso   1.00
C317   C     0.25842   0.77852   0.78569   0.00000  Uiso   1.00
C318   C     0.23897   0.79399   0.74887   0.00000  Uiso   1.00
Si16   Si    0.29182   0.66327   0.74671   0.00000  Uiso   1.00
C319   C     0.21178   0.57387   0.66030   0.00000  Uiso   1.00
C320   C     0.25174   0.56718   0.66885   0.00000  Uiso   1.00
C321   C     0.27346   0.59182   0.69735   0.00000  Uiso   1.00
C322   C     0.25676   0.62453   0.71858   0.00000  Uiso   1.00
C323   C     0.21585   0.62885   0.71181   0.00000  Uiso   1.00
C324   C     0.19377   0.60410   0.68348   0.00000  Uiso   1.00
C325   C     0.31335   0.64087   0.79817   0.00000  Uiso   1.00
C326   C     0.35115   0.65498   0.81317   0.00000  Uiso   1.00
C327   C     0.37351   0.63218   0.84118   0.00000  Uiso   1.00
C328   C     0.35906   0.59397   0.85594   0.00000  Uiso   1.00
C329   C     0.31999   0.58139   0.84496   0.00000  Uiso   1.00
C330   C     0.29790   0.60419   0.81661   0.00000  Uiso   1.00
C331   C     0.36577   0.64151   0.70775   0.00000  Uiso   1.00
C332   C     0.39173   0.63770   0.67333   0.00000  Uiso   1.00
C333   C     0.38826   0.66122   0.63554   0.00000  Uiso   1.00
C334   C     0.35989   0.69068   0.63488   0.00000  Uiso   1.00
C335   C     0.33415   0.69442   0.66956   0.00000  Uiso   1.00
C336   C     0.33515   0.66903   0.70658   0.00000  Uiso   1.00
H198   H     0.27354   0.88301   0.66016   0.00000  Uiso   1.00
H199   H     0.15556   0.83780   0.69455   0.00000  Uiso   1.00
H200   H     0.13567   0.84144   0.61823   0.00000  Uiso   1.00
H201   H     0.25348   0.88634   0.58382   0.00000  Uiso   1.00
H202   H     0.19029   0.81959   0.82772   0.00000  Uiso   1.00
H203   H     0.15726   0.85451   0.88579   0.00000  Uiso   1.00
H204   H     0.15454   0.96152   0.80546   0.00000  Uiso   1.00
H205   H     0.18665   0.92644   0.74689   0.00000  Uiso   1.00
H206   H     0.21707   0.77689   0.68505   0.00000  Uiso   1.00
H207   H     0.24080   0.70899   0.68702   0.00000  Uiso   1.00
H208   H     0.28749   0.72962   0.81590   0.00000  Uiso   1.00
H209   H     0.26378   0.79781   0.81384   0.00000  Uiso   1.00
H210   H     0.26599   0.54278   0.65258   0.00000  Uiso   1.00
H211   H     0.30467   0.58614   0.70247   0.00000  Uiso   1.00
H212   H     0.20099   0.65269   0.72843   0.00000  Uiso   1.00
H213   H     0.16258   0.60941   0.67794   0.00000  Uiso   1.00
H214   H     0.36400   0.68385   0.80116   0.00000  Uiso   1.00
H215   H     0.40340   0.64326   0.84983   0.00000  Uiso   1.00
H216   H     0.30706   0.55292   0.85775   0.00000  Uiso   1.00
H217   H     0.26825   0.59258   0.80749   0.00000  Uiso   1.00
H218   H     0.36896   0.62187   0.73602   0.00000  Uiso   1.00
H219   H     0.41387   0.61496   0.67507   0.00000  Uiso   1.00
H220   H     0.35759   0.71055   0.60670   0.00000  Uiso   1.00
H221   H     0.31211   0.71729   0.66737   0.00000  Uiso   1.00
C337   C     0.36901   0.86193   0.12188   0.00000  Uiso   1.00
C338   C     0.38579   0.87324   0.16191   0.00000  Uiso   1.00
C339   C     0.36201   0.87844   0.19806   0.00000  Uiso   1.00
C340   C     0.32042   0.87277   0.19613   0.00000  Uiso   1.00
C341   C     0.30424   0.86031   0.15571   0.00000  Uiso   1.00
C342   C     0.32770   0.85500   0.11956   0.00000  Uiso   1.00
H222   H     0.41776   0.87895   0.16462   0.00000  Uiso   1.00
H223   H     0.37629   0.88753   0.22848   0.00000  Uiso   1.00
H224   H     0.27219   0.85484   0.15251   0.00000  Uiso   1.00
H225   H     0.31386   0.84514   0.08922   0.00000  Uiso   1.00
C343   C     0.26392   0.94702   0.19232   0.00000  Uiso   1.00
C344   C     0.24751   0.91609   0.21985   0.00000  Uiso   1.00
C345   C     0.20575   0.91274   0.22221   0.00000  Uiso   1.00
C346   C     0.18206   0.93564   0.19559   0.00000  Uiso   1.00
C347   C     0.19912   0.96330   0.16538   0.00000  Uiso   1.00
C348   C     0.24050   0.97010   0.16583   0.00000  Uiso   1.00
Si17   Si    0.28291   0.87800   0.24218   0.00000  Uiso   1.00
C349   C     0.30994   0.89235   0.29450   0.00000  Uiso   1.00
C350   C     0.30622   0.86819   0.33245   0.00000  Uiso   1.00
C351   C     0.33226   0.87316   0.36720   0.00000  Uiso   1.00
C352   C     0.36346   0.90276   0.36566   0.00000  Uiso   1.00
C353   C     0.36563   0.92927   0.32980   0.00000  Uiso   1.00
C354   C     0.33946   0.92418   0.29518   0.00000  Uiso   1.00
C355   C     0.22357   0.80653   0.23933   0.00000  Uiso   1.00
C356   C     0.21551   0.76486   0.24023   0.00000  Uiso   1.00
C357   C     0.24506   0.73757   0.24997   0.00000  Uiso   1.00
C358   C     0.28317   0.75484   0.25956   0.00000  Uiso   1.00
C359   C     0.29110   0.79629   0.25882   0.00000  Uiso   1.00
C360   C     0.26166   0.82373   0.24841   0.00000  Uiso   1.00
Si18   Si    0.23744   0.68028   0.24972   0.00000  Uiso   1.00
C361   C     0.15161   0.61705   0.35070   0.00000  Uiso   1.00
C362   C     0.15995   0.59827   0.31138   0.00000  Uiso   1.00
C363   C     0.18003   0.61956   0.27848   0.00000  Uiso   1.00
C364   C     0.19292   0.66057   0.28301   0.00000  Uiso   1.00
C365   C     0.18060   0.67992   0.32096   0.00000  Uiso   1.00
C366   C     0.16036   0.65879   0.35400   0.00000  Uiso   1.00
C367   C     0.28106   0.65927   0.28102   0.00000  Uiso   1.00
C368   C     0.31765   0.64959   0.26283   0.00000  Uiso   1.00
C369   C     0.34894   0.63701   0.28829   0.00000  Uiso   1.00
C370   C     0.34489   0.63315   0.33340   0.00000  Uiso   1.00
C371   C     0.30876   0.64251   0.35215   0.00000  Uiso   1.00
C372   C     0.27789   0.65535   0.32661   0.00000  Uiso   1.00
C373   C     0.23960   0.61771   0.18579   0.00000  Uiso   1.00
C374   C     0.22761   0.59804   0.14802   0.00000  Uiso   1.00
C375   C     0.20731   0.61837   0.11528   0.00000  Uiso   1.00
C376   C     0.20149   0.65964   0.12073   0.00000  Uiso   1.00
C377   C     0.21346   0.67914   0.15869   0.00000  Uiso   1.00
C378   C     0.23191   0.65862   0.19300   0.00000  Uiso   1.00
H226   H     0.29606   0.95210   0.19042   0.00000  Uiso   1.00
H227   H     0.19131   0.89097   0.24457   0.00000  Uiso   1.00
H228   H     0.14993   0.93129   0.19766   0.00000  Uiso   1.00
H229   H     0.25463   0.99208   0.14353   0.00000  Uiso   1.00
H230   H     0.28289   0.84422   0.33442   0.00000  Uiso   1.00
H231   H     0.32872   0.85338   0.39553   0.00000  Uiso   1.00
H232   H     0.38914   0.95302   0.32811   0.00000  Uiso   1.00
H233   H     0.34262   0.94483   0.26745   0.00000  Uiso   1.00
H234   H     0.19955   0.82599   0.23108   0.00000  Uiso   1.00
H235   H     0.18544   0.75319   0.23292   0.00000  Uiso   1.00
H236   H     0.30724   0.73534   0.26756   0.00000  Uiso   1.00
H237   H     0.32126   0.80784   0.26611   0.00000  Uiso   1.00
H238   H     0.15264   0.56611   0.30740   0.00000  Uiso   1.00
H239   H     0.18719   0.60343   0.24907   0.00000  Uiso   1.00
H240   H     0.18811   0.71206   0.32526   0.00000  Uiso   1.00
H241   H     0.15227   0.67468   0.38318   0.00000  Uiso   1.00
H242   H     0.32184   0.65206   0.22779   0.00000  Uiso   1.00
H243   H     0.37663   0.62967   0.27291   0.00000  Uiso   1.00
H244   H     0.30509   0.64042   0.38723   0.00000  Uiso   1.00
H245   H     0.25052   0.66263   0.34273   0.00000  Uiso   1.00
H246   H     0.25474   0.60065   0.21073   0.00000  Uiso   1.00
H247   H     0.23276   0.56605   0.14465   0.00000  Uiso   1.00
H248   H     0.18710   0.67659   0.09522   0.00000  Uiso   1.00
H249   H     0.20776   0.71107   0.16206   0.00000  Uiso   1.00
C379   C     0.62506   0.62860   0.18277   0.00000  Uiso   1.00
C380   C     0.60890   0.66630   0.18863   0.00000  Uiso   1.00
C381   C     0.62997   0.69694   0.21067   0.00000  Uiso   1.00
C382   C     0.66799   0.69156   0.22826   0.00000  Uiso   1.00
C383   C     0.68504   0.65458   0.21867   0.00000  Uiso   1.00
C384   C     0.66424   0.62389   0.19649   0.00000  Uiso   1.00
H250   H     0.57931   0.67155   0.17635   0.00000  Uiso   1.00
H251   H     0.61609   0.72561   0.21491   0.00000  Uiso   1.00
H252   H     0.71508   0.64940   0.22984   0.00000  Uiso   1.00
H253   H     0.67795   0.59528   0.19149   0.00000  Uiso   1.00
C385   C     0.66220   0.65197   0.32264   0.00000  Uiso   1.00
C386   C     0.67832   0.69207   0.32509   0.00000  Uiso   1.00
C387   C     0.67260   0.71182   0.36497   0.00000  Uiso   1.00
C388   C     0.64852   0.69487   0.39753   0.00000  Uiso   1.00
C389   C     0.62903   0.65680   0.39199   0.00000  Uiso   1.00
C390   C     0.63829   0.63467   0.35514   0.00000  Uiso   1.00
Si19   Si    0.69055   0.72380   0.27398   0.00000  Uiso   1.00
C391   C     0.66103   0.77006   0.28558   0.00000  Uiso   1.00
C392   C     0.67830   0.80851   0.29576   0.00000  Uiso   1.00
C393   C     0.65713   0.83756   0.31662   0.00000  Uiso   1.00
C394   C     0.61734   0.82947   0.32791   0.00000  Uiso   1.00
C395   C     0.59882   0.79246   0.31543   0.00000  Uiso   1.00
C396   C     0.62025   0.76352   0.29518   0.00000  Uiso   1.00
C397   C     0.77776   0.72912   0.28687   0.00000  Uiso   1.00
C398   C     0.81598   0.74320   0.27562   0.00000  Uiso   1.00
C399   C     0.82318   0.76989   0.24022   0.00000  Uiso   1.00
C400   C     0.78953   0.78199   0.21709   0.00000  Uiso   1.00
C401   C     0.75148   0.76777   0.22809   0.00000  Uiso   1.00
C402   C     0.74432   0.74063   0.26324   0.00000  Uiso   1.00
Si20   Si    0.87420   0.78387   0.21658   0.00000  Uiso   1.00
C403   C     0.98527   0.80714   0.30921   0.00000  Uiso   1.00
C404   C     0.98916   0.79168   0.26733   0.00000  Uiso   1.00
C405   C     0.95585   0.78209   0.24217   0.00000  Uiso   1.00
C406   C     0.91699   0.78766   0.25715   0.00000  Uiso   1.00
C407   C     0.91370   0.80181   0.29997   0.00000  Uiso   1.00
C408   C     0.94692   0.81113   0.32548   0.00000  Uiso   1.00
C409   C     0.87470   0.83480   0.18683   0.00000  Uiso   1.00
C410   C     0.85916   0.83932   0.14452   0.00000  Uiso   1.00
C411   C     0.86288   0.87577   0.12171   0.00000  Uiso   1.00
C412   C     0.88289   0.90955   0.14014   0.00000  Uiso   1.00
C413   C     0.89722   0.90619   0.18274   0.00000  Uiso   1.00
C414   C     0.89306   0.86980   0.20544   0.00000  Uiso   1.00
C415   C     0.90842   0.75160   0.13872   0.00000  Uiso   1.00
C416   C     0.91642   0.72201   0.10888   0.00000  Uiso   1.00
C417   C     0.90042   0.68234   0.11410   0.00000  Uiso   1.00
C418   C     0.87619   0.67329   0.15013   0.00000  Uiso   1.00
C419   C     0.86833   0.70306   0.17989   0.00000  Uiso   1.00
C420   C     0.88408   0.74318   0.17523   0.00000  Uiso   1.00
H254   H     0.66697   0.63422   0.29372   0.00000  Uiso   1.00
H255   H     0.68601   0.74212   0.36981   0.00000  Uiso   1.00
H256   H     0.64380   0.71190   0.42696   0.00000  Uiso   1.00
H257   H     0.62458   0.60454   0.35042   0.00000  Uiso   1.00
H258   H     0.70945   0.81557   0.28826   0.00000  Uiso   1.00
H259   H     0.67186   0.86651   0.32485   0.00000  Uiso   1.00
H260   H     0.56788   0.78552   0.32377   0.00000  Uiso   1.00
H261   H     0.60523   0.73436   0.28813   0.00000  Uiso   1.00
H262   H     0.77382   0.70847   0.31450   0.00000  Uiso   1.00
H263   H     0.84091   0.73309   0.29475   0.00000  Uiso   1.00
H264   H     0.79329   0.80291   0.18965   0.00000  Uiso   1.00
H265   H     0.72653   0.77772   0.20882   0.00000  Uiso   1.00
H266   H     0.01854   0.78720   0.25431   0.00000  Uiso   1.00
H267   H     0.96016   0.77040   0.20964   0.00000  Uiso   1.00
H268   H     0.88444   0.80621   0.31346   0.00000  Uiso   1.00
H269   H     0.94309   0.82297   0.35797   0.00000  Uiso   1.00
H270   H     0.84434   0.81338   0.12865   0.00000  Uiso   1.00
H271   H     0.85130   0.87768   0.08875   0.00000  Uiso   1.00
H272   H     0.91189   0.93238   0.19818   0.00000  Uiso   1.00
H273   H     0.90498   0.86839   0.23833   0.00000  Uiso   1.00
H274   H     0.92120   0.78216   0.13339   0.00000  Uiso   1.00
H275   H     0.93475   0.72997   0.08073   0.00000  Uiso   1.00
H276   H     0.84936   0.69493   0.20755   0.00000  Uiso   1.00
C421   C     0.18603   0.40234   0.41445   0.00000  Uiso   1.00
C422   C     0.20776   0.42272   0.44713   0.00000  Uiso   1.00
C423   C     0.18894   0.44641   0.47690   0.00000  Uiso   1.00
C424   C     0.14768   0.45135   0.47548   0.00000  Uiso   1.00
C425   C     0.12607   0.42827   0.44418   0.00000  Uiso   1.00
C426   C     0.14463   0.40428   0.41452   0.00000  Uiso   1.00
H277   H     0.23978   0.42034   0.44900   0.00000  Uiso   1.00
H278   H     0.20706   0.46199   0.50151   0.00000  Uiso   1.00
H279   H     0.09390   0.42973   0.44249   0.00000  Uiso   1.00
H280   H     0.12694   0.38816   0.38996   0.00000  Uiso   1.00
C427   C     0.10930   0.52933   0.41818   0.00000  Uiso   1.00
C428   C     0.12626   0.53683   0.45954   0.00000  Uiso   1.00
C429   C     0.14775   0.57416   0.46439   0.00000  Uiso   1.00
C430   C     0.15397   0.60099   0.42981   0.00000  Uiso   1.00
C431   C     0.13874   0.59189   0.38844   0.00000  Uiso   1.00
C432   C     0.11513   0.55608   0.38356   0.00000  Uiso   1.00
Si21   Si    0.12308   0.49498   0.50287   0.00000  Uiso   1.00
C433   C     0.15015   0.51431   0.55342   0.00000  Uiso   1.00
C434   C     0.13134   0.51897   0.59378   0.00000  Uiso   1.00
C435   C     0.15084   0.53743   0.62878   0.00000  Uiso   1.00
C436   C     0.19047   0.55171   0.62513   0.00000  Uiso   1.00
C437   C     0.21004   0.54652   0.58563   0.00000  Uiso   1.00
C438   C     0.19026   0.52858   0.55070   0.00000  Uiso   1.00
C439   C     0.03913   0.50753   0.49977   0.00000  Uiso   1.00
C440   C     0.99928   0.49949   0.50900   0.00000  Uiso   1.00
C441   C     0.98610   0.46563   0.53423   0.00000  Uiso   1.00
C442   C     0.01549   0.44005   0.54911   0.00000  Uiso   1.00
C443   C     0.05539   0.44794   0.53959   0.00000  Uiso   1.00
C444   C     0.06859   0.48205   0.51475   0.00000  Uiso   1.00
Si22   Si    0.93082   0.45660   0.54521   0.00000  Uiso   1.00
C445   C     0.88024   0.58360   0.57971   0.00000  Uiso   1.00
C446   C     0.85675   0.55573   0.55563   0.00000  Uiso   1.00
C447   C     0.87141   0.51906   0.54333   0.00000  Uiso   1.00
C448   C     0.91000   0.50827   0.55458   0.00000  Uiso   1.00
C449   C     0.93337   0.53713   0.57823   0.00000  Uiso   1.00
C450   C     0.91903   0.57383   0.59038   0.00000  Uiso   1.00
C451   C     0.92041   0.42510   0.59659   0.00000  Uiso   1.00
C452   C     0.91659   0.38243   0.59632   0.00000  Uiso   1.00
C453   C     0.90417   0.36000   0.63263   0.00000  Uiso   1.00
C454   C     0.89480   0.37934   0.67126   0.00000  Uiso   1.00
C455   C     0.90044   0.42156   0.67293   0.00000  Uiso   1.00
C456   C     0.91288   0.44374   0.63654   0.00000  Uiso   1.00
C457   C     0.87137   0.40425   0.50321   0.00000  Uiso   1.00
C458   C     0.85731   0.37685   0.47230   0.00000  Uiso   1.00
C459   C     0.87887   0.37066   0.43425   0.00000  Uiso   1.00
C460   C     0.91391   0.39447   0.42739   0.00000  Uiso   1.00
C461   C     0.92793   0.42170   0.45859   0.00000  Uiso   1.00
C462   C     0.90776   0.42682   0.49807   0.00000  Uiso   1.00
H281   H     0.09157   0.50134   0.41276   0.00000  Uiso   1.00
H282   H     0.16069   0.58220   0.49579   0.00000  Uiso   1.00
H283   H     0.17223   0.62867   0.43468   0.00000  Uiso   1.00
H284   H     0.10162   0.54884   0.35226   0.00000  Uiso   1.00
H285   H     0.10047   0.50826   0.59782   0.00000  Uiso   1.00
H286   H     0.13516   0.54064   0.65930   0.00000  Uiso   1.00
H287   H     0.24074   0.55777   0.58188   0.00000  Uiso   1.00
H288   H     0.20633   0.52612   0.52027   0.00000  Uiso   1.00
H289   H     0.04761   0.53437   0.48047   0.00000  Uiso   1.00
H290   H     0.97775   0.52019   0.49652   0.00000  Uiso   1.00
H291   H     0.00686   0.41342   0.56870   0.00000  Uiso   1.00
H292   H     0.07697   0.42719   0.55183   0.00000  Uiso   1.00
H293   H     0.82675   0.56284   0.54626   0.00000  Uiso   1.00
H294   H     0.85222   0.49810   0.52472   0.00000  Uiso   1.00
H295   H     0.96355   0.53051   0.58764   0.00000  Uiso   1.00
H296   H     0.93780   0.59477   0.60940   0.00000  Uiso   1.00
H297   H     0.92274   0.36633   0.56657   0.00000  Uiso   1.00
H298   H     0.90039   0.32723   0.63052   0.00000  Uiso   1.00
H299   H     0.89478   0.43725   0.70300   0.00000  Uiso   1.00
H300   H     0.91620   0.47655   0.63906   0.00000  Uiso   1.00
H301   H     0.85412   0.40751   0.53274   0.00000  Uiso   1.00
H302   H     0.82993   0.35893   0.47857   0.00000  Uiso   1.00
H303   H     0.93065   0.39140   0.39755   0.00000  Uiso   1.00
H304   H     0.95576   0.43899   0.45243   0.00000  Uiso   1.00
C463   C     0.08334   0.09008   0.58172   0.00000  Uiso   1.00
C464   C     0.05324   0.07830   0.61111   0.00000  Uiso   1.00
C465   C     0.02325   0.04992   0.59951   0.00000  Uiso   1.00
C466   C     0.02236   0.03125   0.55859   0.00000  Uiso   1.00
C467   C     0.05358   0.04317   0.52988   0.00000  Uiso   1.00
C468   C     0.08303   0.07200   0.54079   0.00000  Uiso   1.00
H305   H     0.05285   0.09199   0.64310   0.00000  Uiso   1.00
H306   H     0.99999   0.04208   0.62305   0.00000  Uiso   1.00
H307   H     0.05513   0.02936   0.49799   0.00000  Uiso   1.00
H308   H     0.10655   0.08002   0.51769   0.00000  Uiso   1.00
C469   C     0.96589   0.06045   0.47595   0.00000  Uiso   1.00
C470   C     0.94820   0.02942   0.50236   0.00000  Uiso   1.00
C471   C     0.90647   0.02790   0.50523   0.00000  Uiso   1.00
C472   C     0.88381   0.05573   0.48359   0.00000  Uiso   1.00
C473   C     0.90213   0.08676   0.45844   0.00000  Uiso   1.00
C474   C     0.94357   0.08847   0.45459   0.00000  Uiso   1.00
Si23   Si    0.98215   0.99554   0.53397   0.00000  Uiso   1.00
C475   C     0.95195   0.95798   0.56934   0.00000  Uiso   1.00
C476   C     0.92940   0.92879   0.54514   0.00000  Uiso   1.00
C477   C     0.90846   0.89649   0.56477   0.00000  Uiso   1.00
C478   C     0.90883   0.89158   0.61008   0.00000  Uiso   1.00
C479   C     0.93020   0.92072   0.63473   0.00000  Uiso   1.00
C480   C     0.95124   0.95305   0.61478   0.00000  Uiso   1.00
C481   C     0.01559   0.96542   0.45152   0.00000  Uiso   1.00
C482   C     0.04433   0.94535   0.42927   0.00000  Uiso   1.00
C483   C     0.07223   0.92203   0.45104   0.00000  Uiso   1.00
C484   C     0.06798   0.91831   0.49645   0.00000  Uiso   1.00
C485   C     0.03907   0.93799   0.51863   0.00000  Uiso   1.00
C486   C     0.01254   0.96306   0.49708   0.00000  Uiso   1.00
Si24   Si    0.11309   0.89678   0.41978   0.00000  Uiso   1.00
C487   C     0.02034   0.82162   0.33468   0.00000  Uiso   1.00
C488   C     0.05155   0.84401   0.31434   0.00000  Uiso   1.00
C489   C     0.08206   0.86252   0.33860   0.00000  Uiso   1.00
C490   C     0.08326   0.85934   0.38429   0.00000  Uiso   1.00
C491   C     0.05288   0.83439   0.40382   0.00000  Uiso   1.00
C492   C     0.02219   0.81605   0.37984   0.00000  Uiso   1.00
C493   C     0.14641   0.87798   0.46503   0.00000  Uiso   1.00
C494   C     0.17514   0.90585   0.48261   0.00000  Uiso   1.00
C495   C     0.19160   0.90048   0.52354   0.00000  Uiso   1.00
C496   C     0.17986   0.86689   0.54937   0.00000  Uiso   1.00
C497   C     0.15342   0.83749   0.53136   0.00000  Uiso   1.00
C498   C     0.13724   0.84292   0.49027   0.00000  Uiso   1.00
C499   C     0.16990   0.92855   0.35417   0.00000  Uiso   1.00
C500   C     0.19127   0.95895   0.33150   0.00000  Uiso   1.00
C501   C     0.18548   0.99980   0.33969   0.00000  Uiso   1.00
C502   C     0.15729   0.00905   0.37087   0.00000  Uiso   1.00
C503   C     0.13598   0.97854   0.39327   0.00000  Uiso   1.00
C504   C     0.14151   0.93719   0.38589   0.00000  Uiso   1.00
H309   H     0.99804   0.06293   0.47226   0.00000  Uiso   1.00
H310   H     0.89129   0.00450   0.52510   0.00000  Uiso   1.00
H311   H     0.85168   0.05387   0.48704   0.00000  Uiso   1.00
H312   H     0.95830   0.11181   0.43436   0.00000  Uiso   1.00
H313   H     0.92887   0.93114   0.50975   0.00000  Uiso   1.00
H314   H     0.89254   0.87421   0.54460   0.00000  Uiso   1.00
H315   H     0.93039   0.91819   0.67001   0.00000  Uiso   1.00
H316   H     0.96775   0.97478   0.63517   0.00000  Uiso   1.00
H317   H     0.99533   0.98373   0.43316   0.00000  Uiso   1.00
H318   H     0.04556   0.94832   0.39396   0.00000  Uiso   1.00
H319   H     0.08805   0.90004   0.51506   0.00000  Uiso   1.00
H320   H     0.03745   0.93449   0.55389   0.00000  Uiso   1.00
H321   H     0.05106   0.84852   0.27928   0.00000  Uiso   1.00
H322   H     0.10499   0.88077   0.32154   0.00000  Uiso   1.00
H323   H     0.05270   0.83018   0.43900   0.00000  Uiso   1.00
H324   H     0.99906   0.79766   0.39636   0.00000  Uiso   1.00
H325   H     0.18420   0.93304   0.46414   0.00000  Uiso   1.00
H326   H     0.21256   0.92352   0.53631   0.00000  Uiso   1.00
H327   H     0.14503   0.81025   0.54995   0.00000  Uiso   1.00
H328   H     0.11626   0.81967   0.47785   0.00000  Uiso   1.00
H329   H     0.17574   0.89717   0.34729   0.00000  Uiso   1.00
H330   H     0.21331   0.95089   0.30778   0.00000  Uiso   1.00
H331   H     0.15166   0.04048   0.37742   0.00000  Uiso   1.00
H332   H     0.11448   0.98721   0.41733   0.00000  Uiso   1.00
C505   C     0.17050   0.41730   0.88699   0.00000  Uiso   1.00
C506   C     0.19456   0.44796   0.90636   0.00000  Uiso   1.00
C507   C     0.17866   0.47522   0.93457   0.00000  Uiso   1.00
C508   C     0.13803   0.47320   0.94534   0.00000  Uiso   1.00
C509   C     0.11387   0.44381   0.92332   0.00000  Uiso   1.00
C510   C     0.12952   0.41678   0.89466   0.00000  Uiso   1.00
H333   H     0.22643   0.44957   0.90075   0.00000  Uiso   1.00
H334   H     0.19861   0.49810   0.94938   0.00000  Uiso   1.00
H335   H     0.08202   0.44157   0.92945   0.00000  Uiso   1.00
H336   H     0.10969   0.39460   0.87865   0.00000  Uiso   1.00
C511   C     0.18818   0.53580   0.03309   0.00000  Uiso   1.00
C512   C     0.14927   0.54244   0.01851   0.00000  Uiso   1.00
C513   C     0.13279   0.57825   0.03279   0.00000  Uiso   1.00
C514   C     0.15244   0.60399   0.06207   0.00000  Uiso   1.00
C515   C     0.18985   0.59526   0.07849   0.00000  Uiso   1.00
C516   C     0.20811   0.56154   0.06201   0.00000  Uiso   1.00
Si25   Si    0.11737   0.49872   0.99476   0.00000  Uiso   1.00
C517   C     0.12042   0.45985   0.04107   0.00000  Uiso   1.00
C518   C     0.13399   0.42074   0.03494   0.00000  Uiso   1.00
C519   C     0.14619   0.39697   0.06944   0.00000  Uiso   1.00
C520   C     0.14544   0.41122   0.11211   0.00000  Uiso   1.00
C521   C     0.12919   0.44872   0.11928   0.00000  Uiso   1.00
C522   C     0.11717   0.47228   0.08465   0.00000  Uiso   1.00
C523   C     0.05102   0.52482   0.94223   0.00000  Uiso   1.00
C524   C     0.01368   0.53965   0.93560   0.00000  Uiso   1.00
C525   C     0.98832   0.54744   0.97048   0.00000  Uiso   1.00
C526   C     0.00246   0.53805   0.01241   0.00000  Uiso   1.00
C527   C     0.03951   0.52272   0.01902   0.00000  Uiso   1.00
C528   C     0.06531   0.51597   0.98417   0.00000  Uiso   1.00
Si26   Si    0.93610   0.56612   0.96438   0.00000  Uiso   1.00
C529   C     0.90889   0.65142   0.08168   0.00000  Uiso   1.00
C530   C     0.87972   0.62239   0.06854   0.00000  Uiso   1.00
C531   C     0.88751   0.59506   0.03607   0.00000  Uiso   1.00
C532   C     0.92469   0.59530   0.01539   0.00000  Uiso   1.00
C533   C     0.95401   0.62406   0.03002   0.00000  Uiso   1.00
C534   C     0.94646   0.65139   0.06238   0.00000  Uiso   1.00
C535   C     0.90167   0.51973   0.95406   0.00000  Uiso   1.00
C536   C     0.87816   0.51590   0.91623   0.00000  Uiso   1.00
C537   C     0.85813   0.47973   0.90537   0.00000  Uiso   1.00
C538   C     0.86097   0.44522   0.93169   0.00000  Uiso   1.00
C539   C     0.88295   0.44868   0.97030   0.00000  Uiso   1.00
C540   C     0.90266   0.48508   0.98112   0.00000  Uiso   1.00
C541   C     0.88934   0.61733   0.91466   0.00000  Uiso   1.00
C542   C     0.87788   0.64199   0.88073   0.00000  Uiso   1.00
C543   C     0.90491   0.65423   0.84808   0.00000  Uiso   1.00
C544   C     0.94402   0.64230   0.85175   0.00000  Uiso   1.00
C545   C     0.95529   0.61757   0.88592   0.00000  Uiso   1.00
C546   C     0.92818   0.60339   0.91793   0.00000  Uiso   1.00
H337   H     0.20282   0.50901   0.02258   0.00000  Uiso   1.00
H338   H     0.10327   0.58560   0.02179   0.00000  Uiso   1.00
H339   H     0.13767   0.63020   0.07381   0.00000  Uiso   1.00
H340   H     0.23788   0.55488   0.07264   0.00000  Uiso   1.00
H341   H     0.13620   0.40891   0.00219   0.00000  Uiso   1.00
H342   H     0.15818   0.36776   0.06289   0.00000  Uiso   1.00
H343   H     0.10602   0.50185   0.09161   0.00000  Uiso   1.00
H344   H     0.06962   0.52000   0.91405   0.00000  Uiso   1.00
H345   H     0.00408   0.54540   0.90238   0.00000  Uiso   1.00
H346   H     0.98397   0.54300   0.04065   0.00000  Uiso   1.00
H347   H     0.04871   0.51597   0.05216   0.00000  Uiso   1.00
H348   H     0.85033   0.62188   0.08305   0.00000  Uiso   1.00
H349   H     0.86399   0.57321   0.02624   0.00000  Uiso   1.00
H350   H     0.98343   0.62522   0.01534   0.00000  Uiso   1.00
H351   H     0.96995   0.67290   0.07289   0.00000  Uiso   1.00
H352   H     0.87596   0.54164   0.89419   0.00000  Uiso   1.00
H353   H     0.84133   0.47782   0.87516   0.00000  Uiso   1.00
H354   H     0.88485   0.42259   0.99186   0.00000  Uiso   1.00
H355   H     0.91995   0.48651   0.01111   0.00000  Uiso   1.00
H356   H     0.86735   0.60813   0.93924   0.00000  Uiso   1.00
H357   H     0.84732   0.65087   0.87884   0.00000  Uiso   1.00
H358   H     0.96594   0.65242   0.82760   0.00000  Uiso   1.00
H359   H     0.98595   0.60887   0.88735   0.00000  Uiso   1.00
C547   C     0.87149   0.14582   0.93187   0.00000  Uiso   1.00
C548   C     0.84807   0.13075   0.96660   0.00000  Uiso   1.00
C549   C     0.86357   0.10555   0.99800   0.00000  Uiso   1.00
C550   C     0.90334   0.09425   0.99678   0.00000  Uiso   1.00
C551   C     0.92552   0.10758   0.96007   0.00000  Uiso   1.00
C552   C     0.91006   0.13238   0.92832   0.00000  Uiso   1.00
H360   H     0.81779   0.14005   0.97009   0.00000  Uiso   1.00
H361   H     0.84449   0.09504   0.02476   0.00000  Uiso   1.00
H362   H     0.95604   0.09890   0.95653   0.00000  Uiso   1.00
H363   H     0.92850   0.14186   0.90075   0.00000  Uiso   1.00
C553   C     0.87300   0.00167   0.06673   0.00000  Uiso   1.00
C554   C     0.91118   0.02086   0.06908   0.00000  Uiso   1.00
C555   C     0.93923   0.00130   0.09500   0.00000  Uiso   1.00
C556   C     0.92968   0.96581   0.11768   0.00000  Uiso   1.00
C557   C     0.89139   0.94743   0.11522   0.00000  Uiso   1.00
C558   C     0.86333   0.96562   0.08891   0.00000  Uiso   1.00
Si27   Si    0.92937   0.07240   0.04595   0.00000  Uiso   1.00
C559   C     0.92363   0.10869   0.09318   0.00000  Uiso   1.00
C560   C     0.93952   0.09917   0.13434   0.00000  Uiso   1.00
C561   C     0.92950   0.11940   0.17164   0.00000  Uiso   1.00
C562   C     0.90267   0.15037   0.16990   0.00000  Uiso   1.00
C563   C     0.88864   0.16213   0.12907   0.00000  Uiso   1.00
C564   C     0.89895   0.14178   0.09182   0.00000  Uiso   1.00
C565   C     0.98992   0.03398   0.99984   0.00000  Uiso   1.00
C566   C     0.02782   0.02257   0.98991   0.00000  Uiso   1.00
C567   C     0.06162   0.04023   0.01065   0.00000  Uiso   1.00
C568   C     0.05489   0.07031   0.04161   0.00000  Uiso   1.00
C569   C     0.01697   0.08193   0.05129   0.00000  Uiso   1.00
C570   C     0.98314   0.06389   0.03098   0.00000  Uiso   1.00
Si28   Si    0.11468   0.02609   0.00054   0.00000  Uiso   1.00
C571   C     0.17564   0.98156   0.13048   0.00000  Uiso   1.00
C572   C     0.14439   0.95865   0.11099   0.00000  Uiso   1.00
C573   C     0.12588   0.97266   0.07389   0.00000  Uiso   1.00
C574   C     0.13767   0.01003   0.05416   0.00000  Uiso   1.00
C575   C     0.16773   0.03349   0.07551   0.00000  Uiso   1.00
C576   C     0.18626   0.01977   0.11279   0.00000  Uiso   1.00
C577   C     0.14466   0.07166   0.97742   0.00000  Uiso   1.00
C578   C     0.13092   0.11103   0.97408   0.00000  Uiso   1.00
C579   C     0.15302   0.14222   0.95362   0.00000  Uiso   1.00
C580   C     0.18973   0.13518   0.93486   0.00000  Uiso   1.00
C581   C     0.20442   0.09650   0.93856   0.00000  Uiso   1.00
C582   C     0.18242   0.06566   0.95961   0.00000  Uiso   1.00
C583   C     0.14473   0.95259   0.96382   0.00000  Uiso   1.00
C584   C     0.15461   0.92796   0.92965   0.00000  Uiso   1.00
C585   C     0.13993   0.93448   0.88764   0.00000  Uiso   1.00
C586   C     0.11364   0.96552   0.88162   0.00000  Uiso   1.00
C587   C     0.10396   0.99008   0.91590   0.00000  Uiso   1.00
C588   C     0.11965   0.98502   0.95811   0.00000  Uiso   1.00
H364   H     0.85017   0.01520   0.04708   0.00000  Uiso   1.00
H365   H     0.96955   0.01414   0.09744   0.00000  Uiso   1.00
H366   H     0.95233   0.95176   0.13703   0.00000  Uiso   1.00
H367   H     0.83339   0.95190   0.08640   0.00000  Uiso   1.00
H368   H     0.95975   0.07468   0.13745   0.00000  Uiso   1.00
H369   H     0.94231   0.11073   0.20263   0.00000  Uiso   1.00
H370   H     0.86824   0.18645   0.12653   0.00000  Uiso   1.00
H371   H     0.88673   0.15155   0.06089   0.00000  Uiso   1.00
H372   H     0.96466   0.01896   0.98331   0.00000  Uiso   1.00
H373   H     0.03121   0.99912   0.96581   0.00000  Uiso   1.00
H374   H     0.08005   0.08465   0.05891   0.00000  Uiso   1.00
H375   H     0.01350   0.10529   0.07548   0.00000  Uiso   1.00
H376   H     0.13547   0.92893   0.12413   0.00000  Uiso   1.00
H377   H     0.10211   0.95374   0.05927   0.00000  Uiso   1.00
H378   H     0.17734   0.06301   0.06220   0.00000  Uiso   1.00
H379   H     0.20947   0.03881   0.12808   0.00000  Uiso   1.00
H380   H     0.10202   0.11739   0.98731   0.00000  Uiso   1.00
H381   H     0.14112   0.17208   0.95091   0.00000  Uiso   1.00
H382   H     0.23324   0.09064   0.92489   0.00000  Uiso   1.00
H383   H     0.19457   0.03581   0.96179   0.00000  Uiso   1.00
H384   H     0.15751   0.94685   0.99569   0.00000  Uiso   1.00
H385   H     0.17515   0.90419   0.93544   0.00000  Uiso   1.00
H386   H     0.10082   0.97073   0.84969   0.00000  Uiso   1.00
H387   H     0.08414   0.01446   0.90952   0.00000  Uiso   1.00
C589   C     0.34749   0.12783   0.58282   0.00000  Uiso   1.00
C590   C     0.31571   0.12975   0.55354   0.00000  Uiso   1.00
C591   C     0.28067   0.14659   0.56581   0.00000  Uiso   1.00
C592   C     0.27552   0.16276   0.60760   0.00000  Uiso   1.00
C593   C     0.30625   0.15648   0.63772   0.00000  Uiso   1.00
C594   C     0.34135   0.13959   0.62577   0.00000  Uiso   1.00
H388   H     0.31903   0.11959   0.52030   0.00000  Uiso   1.00
H389   H     0.25690   0.14807   0.54187   0.00000  Uiso   1.00
H390   H     0.30302   0.16564   0.67134   0.00000  Uiso   1.00
H391   H     0.36453   0.13611   0.64998   0.00000  Uiso   1.00
C595   C     0.17094   0.14207   0.63841   0.00000  Uiso   1.00
C596   C     0.18452   0.17151   0.60758   0.00000  Uiso   1.00
C597   C     0.16182   0.17484   0.56936   0.00000  Uiso   1.00
C598   C     0.12857   0.14936   0.56167   0.00000  Uiso   1.00
C599   C     0.11620   0.11970   0.59222   0.00000  Uiso   1.00
C600   C     0.13736   0.11699   0.63124   0.00000  Uiso   1.00
Si29   Si    0.23432   0.19929   0.61721   0.00000  Uiso   1.00
C601   C     0.24987   0.24497   0.58144   0.00000  Uiso   1.00
C602   C     0.25630   0.28327   0.60092   0.00000  Uiso   1.00
C603   C     0.28264   0.31284   0.58383   0.00000  Uiso   1.00
C604   C     0.30395   0.30562   0.54595   0.00000  Uiso   1.00
C605   C     0.29354   0.27036   0.52272   0.00000  Uiso   1.00
C606   C     0.26722   0.24097   0.54009   0.00000  Uiso   1.00
C607   C     0.20811   0.22161   0.70512   0.00000  Uiso   1.00
C608   C     0.21446   0.23853   0.74582   0.00000  Uiso   1.00
C609   C     0.25235   0.25366   0.75930   0.00000  Uiso   1.00
C610   C     0.28334   0.25150   0.72902   0.00000  Uiso   1.00
C611   C     0.27678   0.23546   0.68805   0.00000  Uiso   1.00
C612   C     0.23911   0.21934   0.67487   0.00000  Uiso   1.00
Si30   Si    0.26049   0.27330   0.81656   0.00000  Uiso   1.00
C613   C     0.18866   0.38465   0.86298   0.00000  Uiso   1.00
C614   C     0.17163   0.34509   0.86466   0.00000  Uiso   1.00
C615   C     0.19141   0.31300   0.84797   0.00000  Uiso   1.00
C616   C     0.22949   0.31837   0.82926   0.00000  Uiso   1.00
C617   C     0.24485   0.35871   0.82530   0.00000  Uiso   1.00
C618   C     0.22501   0.39103   0.84137   0.00000  Uiso   1.00
C619   C     0.31421   0.29131   0.82576   0.00000  Uiso   1.00
C620   C     0.33433   0.28218   0.86458   0.00000  Uiso   1.00
C621   C     0.36977   0.30248   0.87616   0.00000  Uiso   1.00
C622   C     0.38680   0.33294   0.84917   0.00000  Uiso   1.00
C623   C     0.36894   0.34027   0.80890   0.00000  Uiso   1.00
C624   C     0.33341   0.32004   0.79767   0.00000  Uiso   1.00
C625   C     0.23093   0.23808   0.89801   0.00000  Uiso   1.00
C626   C     0.21433   0.20739   0.92427   0.00000  Uiso   1.00
C627   C     0.21095   0.16752   0.90941   0.00000  Uiso   1.00
C628   C     0.22609   0.15904   0.86839   0.00000  Uiso   1.00
C629   C     0.24208   0.18999   0.84206   0.00000  Uiso   1.00
C630   C     0.24422   0.23066   0.85553   0.00000  Uiso   1.00
H392   H     0.18751   0.13832   0.66853   0.00000  Uiso   1.00
H393   H     0.17069   0.19750   0.54486   0.00000  Uiso   1.00
H394   H     0.11194   0.15246   0.53157   0.00000  Uiso   1.00
H395   H     0.12819   0.09419   0.65541   0.00000  Uiso   1.00
H396   H     0.24171   0.28950   0.63146   0.00000  Uiso   1.00
H397   H     0.28865   0.34070   0.60170   0.00000  Uiso   1.00
H398   H     0.30733   0.26519   0.49149   0.00000  Uiso   1.00
H399   H     0.26130   0.21337   0.52171   0.00000  Uiso   1.00
H400   H     0.17830   0.21008   0.69656   0.00000  Uiso   1.00
H401   H     0.18940   0.23985   0.76797   0.00000  Uiso   1.00
H402   H     0.31329   0.26255   0.73759   0.00000  Uiso   1.00
H403   H     0.30164   0.23568   0.66549   0.00000  Uiso   1.00
H404   H     0.14325   0.33899   0.88074   0.00000  Uiso   1.00
H405   H     0.17730   0.28271   0.85066   0.00000  Uiso   1.00
H406   H     0.27360   0.36505   0.80999   0.00000  Uiso   1.00
H407   H     0.23832   0.42152   0.83766   0.00000  Uiso   1.00
H408   H     0.32140   0.25932   0.88679   0.00000  Uiso   1.00
H409   H     0.38399   0.29518   0.90682   0.00000  Uiso   1.00
H410   H     0.38197   0.36346   0.78721   0.00000  Uiso   1.00
H411   H     0.31968   0.32762   0.76676   0.00000  Uiso   1.00
H412   H     0.23299   0.26880   0.91051   0.00000  Uiso   1.00
H413   H     0.22396   0.12818   0.85643   0.00000  Uiso   1.00
H414   H     0.25256   0.18248   0.80984   0.00000  Uiso   1.00
C631   C     0.57300   0.09916   0.16499   0.00000  Uiso   1.00
C632   C     0.53491   0.08034   0.16210   0.00000  Uiso   1.00
C633   C     0.51926   0.06862   0.12220   0.00000  Uiso   1.00
C634   C     0.54066   0.07442   0.08302   0.00000  Uiso   1.00
C635   C     0.58033   0.08949   0.08735   0.00000  Uiso   1.00
C636   C     0.59601   0.10192   0.12709   0.00000  Uiso   1.00
H415   H     0.48902   0.05539   0.12139   0.00000  Uiso   1.00
H416   H     0.59928   0.09244   0.05879   0.00000  Uiso   1.00
H417   H     0.62606   0.11551   0.12828   0.00000  Uiso   1.00
C637   C     0.55759   0.13981   0.99276   0.00000  Uiso   1.00
C638   C     0.52931   0.10755   0.98658   0.00000  Uiso   1.00
C639   C     0.51070   0.10547   0.94540   0.00000  Uiso   1.00
C640   C     0.52113   0.13235   0.91200   0.00000  Uiso   1.00
C641   C     0.55035   0.16333   0.91853   0.00000  Uiso   1.00
C642   C     0.56783   0.16718   0.95967   0.00000  Uiso   1.00
Si31   Si    0.51317   0.06796   0.02899   0.00000  Uiso   1.00
C643   C     0.45986   0.07734   0.04495   0.00000  Uiso   1.00
C644   C     0.42988   0.04721   0.05388   0.00000  Uiso   1.00
C645   C     0.39641   0.05528   0.07783   0.00000  Uiso   1.00
C646   C     0.39150   0.09409   0.09408   0.00000  Uiso   1.00
C647   C     0.41934   0.12522   0.08233   0.00000  Uiso   1.00
C648   C     0.45256   0.11696   0.05835   0.00000  Uiso   1.00
C649   C     0.51737   0.00367   0.96353   0.00000  Uiso   1.00
C650   C     0.50864   0.96435   0.94979   0.00000  Uiso   1.00
C651   C     0.49653   0.93312   0.97911   0.00000  Uiso   1.00
C652   C     0.49638   0.94340   0.02348   0.00000  Uiso   1.00
C653   C     0.50490   0.98267   0.03719   0.00000  Uiso   1.00
C654   C     0.51425   0.01449   0.00747   0.00000  Uiso   1.00
Si32   Si    0.47614   0.88144   0.96031   0.00000  Uiso   1.00
C655   C     0.38505   0.89024   0.84290   0.00000  Uiso   1.00
C656   C     0.40593   0.85531   0.85049   0.00000  Uiso   1.00
C657   C     0.43423   0.85418   0.88320   0.00000  Uiso   1.00
C658   C     0.44325   0.88761   0.91024   0.00000  Uiso   1.00
C659   C     0.42314   0.92300   0.90084   0.00000  Uiso   1.00
C660   C     0.39486   0.92442   0.86803   0.00000  Uiso   1.00
C661   C     0.44229   0.86317   0.00671   0.00000  Uiso   1.00
C662   C     0.45561   0.84703   0.04644   0.00000  Uiso   1.00
C663   C     0.43198   0.84530   0.08341   0.00000  Uiso   1.00
C664   C     0.39363   0.85965   0.08244   0.00000  Uiso   1.00
C665   C     0.37913   0.87387   0.04272   0.00000  Uiso   1.00
C666   C     0.40287   0.87559   0.00600   0.00000  Uiso   1.00
C667   C     0.51030   0.80568   0.93726   0.00000  Uiso   1.00
C668   C     0.53397   0.78365   0.91046   0.00000  Uiso   1.00
C669   C     0.56522   0.80286   0.88692   0.00000  Uiso   1.00
C670   C     0.57413   0.84408   0.89405   0.00000  Uiso   1.00
C671   C     0.55031   0.86597   0.92079   0.00000  Uiso   1.00
C672   C     0.51665   0.84790   0.94188   0.00000  Uiso   1.00
H418   H     0.57211   0.14375   0.02417   0.00000  Uiso   1.00
H419   H     0.48732   0.08219   0.93939   0.00000  Uiso   1.00
H420   H     0.50627   0.12956   0.88067   0.00000  Uiso   1.00
H421   H     0.59038   0.19124   0.96552   0.00000  Uiso   1.00
H422   H     0.43327   0.01641   0.04286   0.00000  Uiso   1.00
H423   H     0.37433   0.03095   0.08478   0.00000  Uiso   1.00
H424   H     0.41599   0.15578   0.09396   0.00000  Uiso   1.00
H425   H     0.47429   0.14165   0.05110   0.00000  Uiso   1.00
H426   H     0.52615   0.02660   0.93931   0.00000  Uiso   1.00
H427   H     0.51047   0.95790   0.91522   0.00000  Uiso   1.00
H428   H     0.48854   0.92029   0.04786   0.00000  Uiso   1.00
H429   H     0.50360   0.98902   0.07185   0.00000  Uiso   1.00
H430   H     0.39901   0.82826   0.83154   0.00000  Uiso   1.00
H431   H     0.44926   0.82616   0.88839   0.00000  Uiso   1.00
H432   H     0.42940   0.95005   0.92007   0.00000  Uiso   1.00
H433   H     0.38006   0.95239   0.86209   0.00000  Uiso   1.00
H434   H     0.48546   0.83605   0.04862   0.00000  Uiso   1.00
H435   H     0.44358   0.83291   0.11348   0.00000  Uiso   1.00
H436   H     0.34942   0.88508   0.04087   0.00000  Uiso   1.00
H437   H     0.39061   0.88766   0.97606   0.00000  Uiso   1.00
H438   H     0.48572   0.78993   0.95432   0.00000  Uiso   1.00
H439   H     0.52768   0.75124   0.90711   0.00000  Uiso   1.00
H440   H     0.59877   0.85952   0.87689   0.00000  Uiso   1.00
H441   H     0.55739   0.89826   0.92446   0.00000  Uiso   1.00
H442   H     0.56473   0.14254   0.83573   0.00000  Uiso   1.00
H443   H     0.53988   0.84888   0.32166   0.00000  Uiso   1.00
H444   H     0.86376   0.64261   0.15517   0.00000  Uiso   1.00
H445   H     0.12664   0.45989   0.15223   0.00000  Uiso   1.00
H446   H     0.20376   0.21437   0.95657   0.00000  Uiso   1.00
H447   H     0.51695   0.07555   0.19118   0.00000  Uiso   1.00
H448   H     0.39811   0.39981   0.11103   0.00000  Uiso   1.00
loop_
_geom_bond_atom_site_label_1
_geom_bond_atom_site_label_2
_geom_bond_distance
_geom_bond_site_symmetry_2
_ccdc_geom_bond_type
C1     C2      1.399   .     D
C1     C6      1.397   .     S
C1     C389    1.471   .     S
C2     C3      1.383   .     S
C2     H1      1.085   .     S
C3     C4      1.407   .     D
C3     H2      1.087   .     S
C4     C5      1.406   .     S
C4     Si1     1.893   .     S
C5     C6      1.384   .     D
C5     H3      1.086   .     S
C6     H4      1.085   .     S
C7     C8      1.404   .     S
C7     C12     1.387   .     D
C7     H5      1.087   .     S
C8     C9      1.409   .     D
C8     Si1     1.899   .     S
C9     C10     1.381   .     S
C9     H6      1.087   .     S
C10    C11     1.398   .     D
C10    H7      1.085   .     S
C11    C12     1.395   .     S
C11    C370    1.473   .     S
C12    H8      1.085   .     S
Si1    C13     1.903   .     S
Si1    C24     1.903   .     S
C13    C14     1.408   .     D
C13    C18     1.407   .     S
C14    C15     1.385   .     S
C14    H9      1.087   .     S
C15    C16     1.397   .     D
C15    H10     1.085   .     S
C16    C17     1.397   .     S
C16    C333    1.473   .     S
C17    C18     1.383   .     D
C17    H11     1.085   .     S
C18    H12     1.085   .     S
C19    C20     1.385   .     S
C19    C24     1.406   .     D
C19    H13     1.086   .     S
C20    C21     1.405   .     D
C20    H14     1.087   .     S
C21    C22     1.407   .     S
C21    Si2     1.896   .     S
C22    C23     1.383   .     D
C22    H15     1.086   .     S
C23    C24     1.406   .     S
C23    H16     1.087   .     S
Si2    C28     1.899   .     S
Si2    C31     1.900   .     S
Si2    C42     1.906   .     S
C25    C26     1.398   .     D
C25    C30     1.397   .     S
C25    C604    1.471   .     S
C26    C27     1.381   .     S
C26    H17     1.085   .     S
C27    C28     1.407   .     D
C27    H18     1.086   .     S
C28    C29     1.407   .     S
C29    C30     1.386   .     D
C29    H19     1.086   .     S
C30    H20     1.085   .     S
C31    C32     1.408   .     D
C31    C36     1.405   .     S
C32    C33     1.380   .     S
C32    H21     1.087   .     S
C33    C34     1.400   .     D
C33    H22     1.084   .     S
C34    C35     1.398   .     S
C34    C100    1.471   .     S
C35    C36     1.386   .     D
C35    H23     1.085   .     S
C36    H24     1.086   .     S
C37    C38     1.385   .     S
C37    C42     1.409   .     D
C37    H25     1.086   .     S
C38    C39     1.395   .     D
C38    H26     1.085   .     S
C39    C40     1.397   .     S
C39    C226    1.474   .     S
C40    C41     1.384   .     D
C40    H27     1.085   .     S
C41    C42     1.405   .     S
C41    H28     1.086   .     S
C43    C44     1.399   .     S
C43    C48     1.399   .     D
C43    C263    1.472   .     S
C44    C45     1.381   .     D
C44    H29     1.084   .     S
C45    C46     1.409   .     S
C45    H30     1.087   .     S
C46    C47     1.404   .     D
C46    Si3     1.897   .     S
C47    C48     1.385   .     S
C47    H31     1.086   .     S
C48    H32     1.084   .     S
C49    C50     1.405   .     D
C49    C54     1.386   .     S
C49    H33     1.086   .     S
C50    C51     1.409   .     S
C50    Si3     1.893   .     S
C51    C52     1.380   .     D
C51    H34     1.087   .     S
C52    C53     1.398   .     S
C52    H35     1.085   .     S
C53    C54     1.396   .     D
C53    C622    1.471   .     S
C54    H36     1.085   .     S
Si3    C55     1.914   .     S
Si3    C66     1.897   .     S
C55    C56     1.408   .     D
C55    C60     1.407   .     S
C56    C57     1.384   .     S
C56    H37     1.086   .     S
C57    C58     1.398   .     D
C57    H38     1.085   .     S
C58    C59     1.397   .     S
C58    C328    1.472   .     S
C59    C60     1.383   .     D
C59    H39     1.084   .     S
C60    H40     1.085   .     S
C61    C62     1.384   1_556 S
C61    C66     1.407   .     D
C61    H41     1.086   .     S
C62    C61     1.384   1_554 S
C62    C63     1.406   .     D
C62    H42     1.086   .     S
C63    C64     1.407   .     S
C63    Si4     1.899   .     S
C64    C65     1.384   1_554 D
C64    H43     1.087   .     S
C65    C64     1.384   1_556 D
C65    C66     1.406   .     S
C65    H44     1.086   .     S
Si4    C70     1.908   .     S
Si4    C73     1.899   .     S
Si4    C84     1.903   .     S
C67    C68     1.397   .     D
C67    C72     1.398   .     S
C67    C169    1.475   .     S
C68    C69     1.383   .     S
C68    H448    1.085   .     S
C69    C70     1.408   .     D
C69    H45     1.086   .     S
C70    C71     1.408   .     S
C71    C72     1.386   .     D
C71    H46     1.086   .     S
C72    H47     1.085   .     S
C73    C74     1.410   .     S
C73    C78     1.403   .     D
C74    C75     1.382   .     D
C74    H48     1.088   .     S
C75    C76     1.397   .     S
C75    H49     1.085   .     S
C76    C77     1.397   .     D
C76    C379    1.473   .     S
C77    C78     1.386   .     S
C77    H50     1.085   .     S
C78    H51     1.086   .     S
C79    C80     1.381   .     S
C79    C84     1.409   .     D
C79    H52     1.088   .     S
C80    C81     1.397   .     D
C80    H53     1.085   .     S
C81    C82     1.396   .     S
C81    C211    1.471   .     S
C82    C83     1.386   .     D
C82    H54     1.085   .     S
C83    C84     1.403   .     S
C83    H55     1.085   .     S
C85    C86     1.396   .     D
C85    C90     1.398   .     S
C85    C165    1.472   .     S
C86    C87     1.383   .     S
C86    H56     1.085   .     S
C87    C88     1.407   .     D
C87    H57     1.084   .     S
C88    C89     1.409   .     S
C88    Si5     1.909   .     S
C89    C90     1.385   .     D
C89    H58     1.087   .     S
C90    H59     1.085   .     S
C91    C92     1.405   .     S
C91    C96     1.383   .     D
C91    H60     1.086   .     S
C92    C93     1.408   .     D
C92    Si5     1.896   .     S
C93    C94     1.383   .     S
C93    H61     1.087   .     S
C94    C95     1.396   .     D
C94    H62     1.085   .     S
C95    C96     1.396   .     S
C95    C641    1.472   .     S
C96    H442    1.085   .     S
Si5    C97     1.890   .     S
Si5    C108    1.897   .     S
C97    C98     1.407   .     D
C97    C102    1.410   .     S
C98    C99     1.383   .     S
C98    H63     1.086   .     S
C99    C100    1.401   .     D
C99    H64     1.085   .     S
C100   C101    1.399   .     S
C101   C102    1.383   .     D
C101   H65     1.085   .     S
C102   H66     1.086   .     S
C103   C104    1.384   .     D
C103   C108    1.407   .     S
C103   H67     1.087   .     S
C104   C105    1.406   .     S
C104   H68     1.087   .     S
C105   C106    1.406   .     D
C105   Si6     1.898   .     S
C106   C107    1.384   .     S
C106   H69     1.086   .     S
C107   C108    1.405   .     D
C107   H70     1.087   .     S
Si6    C112    1.904   .     S
Si6    C115    1.904   .     S
Si6    C126    1.895   .     S
C109   C110    1.396   .     S
C109   C114    1.397   .     D
C109   C538    1.472   .     S
C110   C111    1.384   .     D
C110   H71     1.085   .     S
C111   C112    1.406   .     S
C111   H72     1.086   .     S
C112   C113    1.408   .     D
C113   C114    1.384   .     S
C113   H73     1.086   .     S
C114   H74     1.085   .     S
C115   C116    1.403   .     D
C115   C120    1.410   .     S
C116   C117    1.388   .     S
C116   H75     1.086   .     S
C117   C118    1.396   .     D
C117   H76     1.085   .     S
C118   C119    1.398   .     S
C118   C454    1.473   .     S
C119   C120    1.380   .     D
C119   H77     1.084   .     S
C120   H78     1.087   .     S
C121   C122    1.383   .     S
C121   C126    1.407   .     D
C121   H79     1.086   .     S
C122   C123    1.399   .     D
C122   H80     1.084   .     S
C123   C124    1.398   .     S
C123   C547    1.473   .     S
C124   C125    1.385   .     D
C124   H81     1.085   .     S
C125   C126    1.407   .     S
C125   H82     1.086   .     S
C127   C128    1.396   .     D
C127   C132    1.398   .     S
C127   C394    1.471   .     S
C128   C129    1.383   .     S
C128   H443    1.085   .     S
C129   C130    1.406   .     D
C129   H83     1.086   .     S
C130   C131    1.408   .     S
C130   Si7     1.899   .     S
C131   C132    1.383   .     D
C131   H84     1.087   .     S
C132   H85     1.085   .     S
C133   C134    1.408   .     D
C133   C138    1.384   .     S
C133   H86     1.085   .     S
C134   C135    1.407   .     S
C134   Si7     1.903   .     S
C135   C136    1.383   .     D
C135   H87     1.086   .     S
C136   C137    1.398   .     S
C136   H88     1.085   .     S
C137   C138    1.396   .     D
C137   C253    1.473   .     S
C138   H89     1.085   .     S
Si7    C139    1.901   .     S
Si7    C150    1.897   .     S
C139   C140    1.408   .     S
C139   C144    1.407   .     D
C140   C141    1.383   .     D
C140   H90     1.086   .     S
C141   C142    1.396   .     S
C141   H91     1.085   .     S
C142   C143    1.398   .     D
C142   C352    1.471   .     S
C143   C144    1.384   .     S
C143   H92     1.085   .     S
C144   H93     1.087   .     S
C145   C146    1.382   1_565 D
C145   C150    1.407   .     S
C145   H94     1.087   .     S
C146   C145    1.382   1_545 D
C146   C147    1.406   .     S
C146   H95     1.086   .     S
C147   C148    1.406   .     D
C147   Si8     1.897   .     S
C148   C149    1.385   1_545 S
C148   H96     1.087   .     S
C149   C148    1.385   1_565 S
C149   C150    1.406   .     D
C149   H97     1.086   .     S
Si8    C154    1.911   .     S
Si8    C157    1.901   .     S
Si8    C168    1.892   .     S
C151   C152    1.397   .     S
C151   C156    1.397   .     D
C151   C589    1.472   .     S
C152   C153    1.384   .     D
C152   H98     1.085   .     S
C153   C154    1.404   .     S
C153   H99     1.086   .     S
C154   C155    1.409   .     D
C155   C156    1.383   .     S
C155   H100    1.087   .     S
C156   H101    1.085   .     S
C157   C158    1.409   .     D
C157   C162    1.408   .     S
C158   C159    1.385   .     S
C158   H102    1.087   .     S
C159   C160    1.398   .     D
C159   H103    1.085   .     S
C160   C161    1.397   .     S
C160   C202    1.473   .     S
C161   C162    1.383   .     D
C161   H104    1.085   .     S
C162   H105    1.085   .     S
C163   C164    1.385   .     S
C163   C168    1.404   .     D
C163   H106    1.086   .     S
C164   C165    1.398   .     D
C164   H107    1.085   .     S
C165   C166    1.397   .     S
C166   C167    1.382   .     D
C166   H108    1.085   .     S
C167   C168    1.410   .     S
C167   H109    1.087   .     S
C169   C170    1.398   .     S
C169   C174    1.398   .     D
C170   C171    1.386   .     D
C170   H110    1.085   .     S
C171   C172    1.407   .     S
C171   H111    1.087   .     S
C172   C173    1.407   .     D
C172   Si9     1.910   .     S
C173   C174    1.383   .     S
C173   H112    1.086   .     S
C174   H113    1.085   .     S
C175   C176    1.411   .     D
C175   C180    1.380   .     S
C175   H114    1.088   .     S
C176   C177    1.403   .     S
C176   Si9     1.905   .     S
C177   C178    1.387   .     D
C177   H115    1.085   .     S
C178   C179    1.396   .     S
C178   H116    1.085   .     S
C179   C180    1.398   .     D
C179   C520    1.472   .     S
C180   H117    1.085   .     S
Si9    C181    1.901   .     S
Si9    C192    1.902   .     S
C181   C182    1.409   .     D
C181   C186    1.405   .     S
C182   C183    1.383   .     S
C182   H118    1.088   .     S
C183   C184    1.397   .     D
C183   H119    1.085   .     S
C184   C185    1.397   .     S
C184   C421    1.473   .     S
C185   C186    1.385   .     D
C185   H120    1.085   .     S
C186   H121    1.086   .     S
C187   C188    1.385   .     S
C187   C192    1.405   .     D
C187   H122    1.085   .     S
C188   C189    1.407   .     D
C188   H123    1.087   .     S
C189   C190    1.407   .     S
C189   Si10    1.901   .     S
C190   C191    1.384   .     D
C190   H124    1.087   .     S
C191   C192    1.408   .     S
C191   H125    1.088   .     S
Si10   C196    1.900   .     S
Si10   C199    1.909   .     S
Si10   C210    1.897   .     S
C193   C194    1.396   .     D
C193   C198    1.398   .     S
C193   C501    1.474   1_545 S
C194   C195    1.386   .     S
C194   H126    1.085   .     S
C195   C196    1.405   .     D
C195   H127    1.086   .     S
C196   C197    1.408   .     S
C197   C198    1.382   .     D
C197   H128    1.088   .     S
C198   H129    1.085   .     S
C199   C200    1.408   .     D
C199   C204    1.406   .     S
C200   C201    1.385   .     S
C200   H130    1.087   .     S
C201   C202    1.396   .     D
C201   H131    1.085   .     S
C202   C203    1.398   .     S
C203   C204    1.383   .     D
C203   H132    1.085   .     S
C204   H133    1.086   .     S
C205   C206    1.382   .     D
C205   C210    1.409   .     S
C205   H134    1.087   .     S
C206   C207    1.398   .     S
C206   H135    1.085   .     S
C207   C208    1.397   .     D
C207   C646    1.470   .     S
C208   C209    1.383   .     S
C208   H136    1.085   .     S
C209   C210    1.405   .     D
C209   H137    1.085   .     S
C211   C212    1.397   .     S
C211   C216    1.396   .     D
C212   C213    1.382   .     D
C212   H138    1.085   .     S
C213   C214    1.409   .     S
C213   H139    1.088   .     S
C214   C215    1.404   .     D
C214   Si11    1.909   .     S
C215   C216    1.385   .     S
C215   H140    1.086   .     S
C216   H141    1.085   .     S
C217   C218    1.406   .     S
C217   C222    1.383   .     D
C217   H142    1.086   .     S
C218   C219    1.408   .     D
C218   Si11    1.894   .     S
C219   C220    1.384   .     S
C219   H143    1.086   .     S
C220   C221    1.398   .     D
C220   H144    1.085   .     S
C221   C222    1.399   .     S
C221   C631    1.471   .     S
C222   H145    1.085   .     S
Si11   C223    1.902   .     S
Si11   C234    1.896   .     S
C223   C224    1.405   .     S
C223   C228    1.410   .     D
C224   C225    1.387   .     D
C224   H146    1.085   .     S
C225   C226    1.395   .     S
C225   H147    1.085   .     S
C226   C227    1.397   .     D
C227   C228    1.382   .     S
C227   H148    1.085   .     S
C228   H149    1.087   .     S
C229   C230    1.382   .     S
C229   C234    1.408   .     D
C229   H150    1.087   .     S
C230   C231    1.406   .     D
C230   H151    1.087   .     S
C231   C232    1.405   .     S
C231   Si12    1.896   .     S
C232   C233    1.386   .     D
C232   H152    1.086   .     S
C233   C234    1.404   .     S
C233   H153    1.086   .     S
Si12   C238    1.899   .     S
Si12   C241    1.896   .     S
Si12   C252    1.903   .     S
C235   C236    1.395   .     D
C235   C240    1.396   .     S
C235   C473    1.472   .     S
C236   C237    1.385   .     S
C236   H154    1.085   .     S
C237   C238    1.408   .     D
C237   H155    1.087   .     S
C238   C239    1.406   .     S
C239   C240    1.382   .     D
C239   H156    1.086   .     S
C240   H157    1.085   .     S
C241   C242    1.407   .     D
C241   C246    1.407   .     S
C242   C243    1.384   .     S
C242   H158    1.086   .     S
C243   C244    1.397   .     D
C243   H159    1.085   .     S
C244   C245    1.399   .     S
C244   C459    1.473   .     S
C245   C246    1.384   .     D
C245   H160    1.085   .     S
C246   H161    1.087   .     S
C247   C248    1.381   .     S
C247   C252    1.407   .     D
C247   H162    1.086   .     S
C248   C249    1.397   .     D
C248   H163    1.085   .     S
C249   C250    1.397   .     S
C249   C562    1.473   .     S
C250   C251    1.387   .     D
C250   H164    1.085   .     S
C251   C252    1.407   .     S
C251   H165    1.087   .     S
C253   C254    1.397   .     S
C253   C258    1.398   .     D
C254   C255    1.381   .     D
C254   H166    1.085   .     S
C255   C256    1.409   .     S
C255   H167    1.086   .     S
C256   C257    1.405   .     D
C256   Si13    1.902   .     S
C257   C258    1.387   .     S
C257   H168    1.086   .     S
C258   H169    1.085   .     S
C259   C260    1.403   .     S
C259   C264    1.386   .     D
C259   H170    1.086   .     S
C260   C261    1.411   .     D
C260   Si13    1.901   .     S
C261   C262    1.380   .     S
C261   H171    1.087   .     S
C262   C263    1.399   .     D
C262   H172    1.084   .     S
C263   C264    1.398   .     S
C264   H173    1.085   .     S
Si13   C265    1.908   .     S
Si13   C276    1.898   .     S
C265   C266    1.402   .     D
C265   C270    1.409   .     S
C266   C267    1.387   .     S
C266   H174    1.086   .     S
C267   C268    1.396   .     D
C267   H175    1.085   .     S
C268   C269    1.398   .     S
C268   C669    1.473   .     S
C269   C270    1.380   .     D
C269   H176    1.085   .     S
C270   H177    1.088   .     S
C271   C272    1.383   .     S
C271   C276    1.406   .     D
C271   H178    1.086   .     S
C272   C273    1.408   .     D
C272   H179    1.087   .     S
C273   C274    1.405   .     S
C273   Si14    1.900   .     S
C274   C275    1.386   .     D
C274   H180    1.086   .     S
C275   C276    1.407   .     S
C275   H181    1.087   .     S
Si14   C280    1.904   .     S
Si14   C283    1.895   .     S
Si14   C294    1.902   .     S
C277   C278    1.396   .     D
C277   C282    1.398   .     S
C277   C543    1.472   .     S
C278   C279    1.383   .     S
C278   H182    1.085   .     S
C279   C280    1.406   .     D
C279   H183    1.086   .     S
C280   C281    1.407   .     S
C281   C282    1.384   .     D
C281   H184    1.087   .     S
C282   H185    1.085   .     S
C283   C284    1.407   .     S
C283   C288    1.406   .     D
C284   C285    1.383   .     D
C284   H186    1.087   .     S
C285   C286    1.399   .     S
C285   H187    1.085   .     S
C286   C287    1.397   .     D
C286   C478    1.473   .     S
C287   C288    1.385   .     S
C287   H188    1.085   .     S
C288   H189    1.086   .     S
C289   C290    1.384   .     S
C289   C294    1.409   .     D
C289   H190    1.087   .     S
C290   C291    1.398   .     D
C290   H191    1.085   .     S
C291   C292    1.397   .     S
C291   C445    1.474   .     S
C292   C293    1.385   .     D
C292   H192    1.085   .     S
C293   C294    1.406   .     S
C293   H193    1.086   .     S
C295   C296    1.397   .     D
C295   C300    1.399   .     S
C295   C655    1.472   .     S
C296   C297    1.384   .     S
C296   H194    1.085   .     S
C297   C298    1.406   .     D
C297   H195    1.086   .     S
C298   C299    1.409   .     S
C298   Si15    1.906   .     S
C299   C300    1.383   .     D
C299   H196    1.087   .     S
C300   H197    1.085   .     S
C301   C302    1.405   .     S
C301   C306    1.387   .     D
C301   H198    1.086   .     S
C302   C303    1.409   .     D
C302   Si15    1.899   .     S
C303   C304    1.383   .     S
C303   H199    1.087   .     S
C304   C305    1.398   .     D
C304   H200    1.085   .     S
C305   C306    1.397   .     S
C305   C496    1.476   .     S
C306   H201    1.085   .     S
Si15   C307    1.900   .     S
Si15   C318    1.907   .     S
C307   C308    1.406   .     D
C307   C312    1.409   .     S
C308   C309    1.386   .     S
C308   H202    1.086   .     S
C309   C310    1.398   .     D
C309   H203    1.085   .     S
C310   C311    1.399   .     S
C310   C585    1.475   .     S
C311   C312    1.384   .     D
C311   H204    1.085   .     S
C312   H205    1.087   .     S
C313   C314    1.384   .     S
C313   C318    1.405   .     D
C313   H206    1.086   .     S
C314   C315    1.407   .     D
C314   H207    1.087   .     S
C315   C316    1.405   .     S
C315   Si16    1.894   .     S
C316   C317    1.385   .     D
C316   H208    1.087   .     S
C317   C318    1.408   .     S
C317   H209    1.087   .     S
Si16   C322    1.905   .     S
Si16   C325    1.895   .     S
Si16   C336    1.912   .     S
C319   C320    1.397   .     S
C319   C324    1.396   .     D
C319   C436    1.473   .     S
C320   C321    1.381   .     D
C320   H210    1.085   .     S
C321   C322    1.409   .     S
C321   H211    1.087   .     S
C322   C323    1.405   .     D
C323   C324    1.386   .     S
C323   H212    1.086   .     S
C324   H213    1.085   .     S
C325   C326    1.409   .     S
C325   C330    1.406   .     D
C326   C327    1.383   .     D
C326   H214    1.087   .     S
C327   C328    1.399   .     S
C327   H215    1.085   .     S
C328   C329    1.399   .     D
C329   C330    1.384   .     S
C329   H216    1.085   .     S
C330   H217    1.086   .     S
C331   C332    1.383   .     S
C331   C336    1.408   .     D
C331   H218    1.086   .     S
C332   C333    1.397   .     D
C332   H219    1.085   .     S
C333   C334    1.397   .     S
C334   C335    1.385   .     D
C334   H220    1.085   .     S
C335   C336    1.406   .     S
C335   H221    1.087   .     S
C337   C338    1.396   .     D
C337   C342    1.398   .     S
C337   C664    1.473   .     S
C338   C339    1.387   .     S
C338   H222    1.085   .     S
C339   C340    1.403   .     D
C339   H223    1.086   .     S
C340   C341    1.409   .     S
C340   Si17    1.912   .     S
C341   C342    1.381   .     D
C341   H224    1.088   .     S
C342   H225    1.085   .     S
C343   C344    1.409   .     S
C343   C348    1.381   .     D
C343   H226    1.087   .     S
C344   C345    1.405   .     D
C344   Si17    1.897   .     S
C345   C346    1.385   .     S
C345   H227    1.086   .     S
C346   C347    1.398   .     D
C346   H228    1.085   .     S
C347   C348    1.398   .     S
C347   C571    1.471   .     S
C348   H229    1.084   .     S
Si17   C349    1.895   .     S
Si17   C360    1.901   .     S
C349   C350    1.407   .     D
C349   C354    1.407   .     S
C350   C351    1.383   .     S
C350   H230    1.086   .     S
C351   C352    1.396   .     D
C351   H231    1.085   .     S
C352   C353    1.398   .     S
C353   C354    1.383   .     D
C353   H232    1.085   .     S
C354   H233    1.087   .     S
C355   C356    1.387   .     S
C355   C360    1.402   .     D
C355   H234    1.086   .     S
C356   C357    1.405   .     D
C356   H235    1.087   .     S
C357   C358    1.407   .     S
C357   Si18    1.894   .     S
C358   C359    1.380   .     D
C358   H236    1.086   .     S
C359   C360    1.410   .     S
C359   H237    1.088   .     S
Si18   C364    1.898   .     S
Si18   C367    1.908   .     S
Si18   C378    1.893   .     S
C361   C362    1.398   .     S
C361   C366    1.398   .     D
C361   C431    1.471   .     S
C362   C363    1.382   .     D
C362   H238    1.085   .     S
C363   C364    1.407   .     S
C363   H239    1.086   .     S
C364   C365    1.408   .     D
C365   C366    1.385   .     S
C365   H240    1.087   .     S
C366   H241    1.085   .     S
C367   C368    1.406   .     S
C367   C372    1.407   .     D
C368   C369    1.387   .     D
C368   H242    1.087   .     S
C369   C370    1.395   .     S
C369   H243    1.085   .     S
C370   C371    1.397   .     D
C371   C372    1.381   .     S
C371   H244    1.085   .     S
C372   H245    1.085   .     S
C373   C374    1.383   .     S
C373   C378    1.407   .     D
C373   H246    1.087   .     S
C374   C375    1.398   .     D
C374   H247    1.085   .     S
C375   C376    1.398   .     S
C375   C515    1.472   .     S
C376   C377    1.385   .     D
C376   H248    1.085   .     S
C377   C378    1.406   .     S
C377   H249    1.087   .     S
C379   C380    1.397   .     S
C379   C384    1.398   .     D
C380   C381    1.385   .     D
C380   H250    1.085   .     S
C381   C382    1.406   .     S
C381   H251    1.086   .     S
C382   C383    1.409   .     D
C382   Si19    1.901   .     S
C383   C384    1.384   .     S
C383   H252    1.087   .     S
C384   H253    1.084   .     S
C385   C386    1.406   .     D
C385   C390    1.383   .     S
C385   H254    1.085   .     S
C386   C387    1.411   .     S
C386   Si19    1.911   .     S
C387   C388    1.383   .     D
C387   H255    1.087   .     S
C388   C389    1.398   .     S
C388   H256    1.085   .     S
C389   C390    1.397   .     D
C390   H257    1.085   .     S
Si19   C391    1.901   .     S
Si19   C402    1.893   .     S
C391   C392    1.405   .     D
C391   C396    1.409   .     S
C392   C393    1.386   .     S
C392   H258    1.086   .     S
C393   C394    1.395   .     D
C393   H259    1.085   .     S
C394   C395    1.398   .     S
C395   C396    1.380   .     D
C395   H260    1.085   .     S
C396   H261    1.087   .     S
C397   C398    1.387   .     S
C397   C402    1.403   .     D
C397   H262    1.086   .     S
C398   C399    1.405   .     D
C398   H263    1.087   .     S
C399   C400    1.407   .     S
C399   Si20    1.898   .     S
C400   C401    1.382   .     D
C400   H264    1.087   .     S
C401   C402    1.408   .     S
C401   H265    1.088   .     S
Si20   C406    1.900   .     S
Si20   C409    1.904   .     S
Si20   C420    1.899   .     S
C403   C404    1.396   .     S
C403   C408    1.398   .     D
C403   C487    1.474   1_655 S
C404   C405    1.383   .     D
C404   H266    1.085   1_655 S
C405   C406    1.409   .     S
C405   H267    1.087   .     S
C406   C407    1.406   .     D
C407   C408    1.385   .     S
C407   H268    1.086   .     S
C408   H269    1.085   .     S
C409   C410    1.407   .     D
C409   C414    1.406   .     S
C410   C411    1.386   .     S
C410   H270    1.087   .     S
C411   C412    1.395   .     D
C411   H271    1.085   .     S
C412   C413    1.397   .     S
C412   C557    1.474   .     S
C413   C414    1.383   .     D
C413   H272    1.085   .     S
C414   H273    1.086   .     S
C415   C416    1.382   .     S
C415   C420    1.407   .     D
C415   H274    1.086   .     S
C416   C417    1.397   .     D
C416   H275    1.085   .     S
C417   C418    1.396   .     S
C417   C529    1.471   .     S
C418   C419    1.384   .     D
C418   H444    1.085   .     S
C419   C420    1.406   .     S
C419   H276    1.086   .     S
H266   C404    1.085   1_455 S
C421   C422    1.396   .     S
C421   C426    1.397   .     D
C422   C423    1.384   .     D
C422   H277    1.085   .     S
C423   C424    1.406   .     S
C423   H278    1.085   .     S
C424   C425    1.408   .     D
C424   Si21    1.902   .     S
C425   C426    1.384   .     S
C425   H279    1.087   .     S
C426   H280    1.085   .     S
C427   C428    1.409   .     S
C427   C432    1.382   .     D
C427   H281    1.087   .     S
C428   C429    1.404   .     D
C428   Si21    1.906   .     S
C429   C430    1.384   .     S
C429   H282    1.086   .     S
C430   C431    1.397   .     D
C430   H283    1.085   .     S
C431   C432    1.398   .     S
C432   H284    1.085   .     S
Si21   C433    1.895   .     S
Si21   C444    1.896   .     S
C433   C434    1.406   .     D
C433   C438    1.408   .     S
C434   C435    1.386   .     S
C434   H285    1.086   .     S
C435   C436    1.395   .     D
C435   H286    1.085   .     S
C436   C437    1.397   .     S
C437   C438    1.382   .     D
C437   H287    1.085   .     S
C438   H288    1.086   .     S
C439   C440    1.382   1_455 S
C439   C444    1.406   .     D
C439   H289    1.086   .     S
C440   C439    1.382   1_655 S
C440   C441    1.406   .     D
C440   H290    1.087   .     S
C441   C442    1.405   1_655 S
C441   Si22    1.898   .     S
C442   C441    1.405   1_455 S
C442   C443    1.385   .     D
C442   H291    1.087   .     S
C443   C444    1.406   .     S
C443   H292    1.087   .     S
Si22   C448    1.901   .     S
Si22   C451    1.903   .     S
Si22   C462    1.898   .     S
C445   C446    1.396   .     S
C445   C450    1.397   .     D
C446   C447    1.386   .     D
C446   H293    1.085   .     S
C447   C448    1.405   .     S
C447   H294    1.086   .     S
C448   C449    1.408   .     D
C449   C450    1.382   .     S
C449   H295    1.087   .     S
C450   H296    1.085   .     S
C451   C452    1.407   .     D
C451   C456    1.407   .     S
C452   C453    1.385   .     S
C452   H297    1.087   .     S
C453   C454    1.397   .     D
C453   H298    1.085   .     S
C454   C455    1.398   .     S
C455   C456    1.383   .     D
C455   H299    1.085   .     S
C456   H300    1.086   .     S
C457   C458    1.382   .     D
C457   C462    1.408   .     S
C457   H301    1.087   .     S
C458   C459    1.399   .     S
C458   H302    1.085   .     S
C459   C460    1.397   .     D
C460   C461    1.384   .     S
C460   H303    1.085   .     S
C461   C462    1.406   .     D
C461   H304    1.087   .     S
C463   C464    1.395   .     S
C463   C468    1.396   .     D
C463   C599    1.474   .     S
C464   C465    1.388   .     D
C464   H305    1.085   .     S
C465   C466    1.404   .     S
C465   H306    1.086   1_455 S
C466   C467    1.410   .     D
C466   Si23    1.906   1_445 S
C467   C468    1.380   .     S
C467   H307    1.086   .     S
C468   H308    1.085   .     S
H306   C465    1.086   1_655 S
C469   C470    1.408   .     D
C469   C474    1.380   .     S
C469   H309    1.086   .     S
C470   C471    1.405   .     S
C470   Si23    1.897   1_545 S
C471   C472    1.387   .     D
C471   H310    1.086   .     S
C472   C473    1.395   .     S
C472   H311    1.085   .     S
C473   C474    1.397   .     D
C474   H312    1.085   .     S
Si23   C466    1.906   1_665 S
Si23   C470    1.897   1_565 S
Si23   C475    1.896   .     S
Si23   C486    1.903   1_655 S
C475   C476    1.410   .     D
C475   C480    1.402   .     S
C476   C477    1.381   .     S
C476   H313    1.088   .     S
C477   C478    1.398   .     D
C477   H314    1.085   .     S
C478   C479    1.397   .     S
C479   C480    1.387   .     D
C479   H315    1.085   .     S
C480   H316    1.086   .     S
C481   C482    1.385   .     S
C481   C486    1.403   .     D
C481   H317    1.086   1_455 S
C482   C483    1.407   .     D
C482   H318    1.088   .     S
C483   C484    1.405   .     S
C483   Si24    1.910   .     S
C484   C485    1.382   .     D
C484   H319    1.085   .     S
C485   C486    1.407   .     S
C485   H320    1.088   .     S
C486   Si23    1.903   1_455 S
Si24   C490    1.900   .     S
Si24   C493    1.901   .     S
Si24   C504    1.902   .     S
C487   C403    1.474   1_455 S
C487   C488    1.397   .     S
C487   C492    1.398   .     D
C488   C489    1.385   .     D
C488   H321    1.085   .     S
C489   C490    1.405   .     S
C489   H322    1.086   .     S
C490   C491    1.410   .     D
C491   C492    1.383   .     S
C491   H323    1.087   .     S
C492   H324    1.085   1_455 S
C493   C494    1.409   .     S
C493   C498    1.407   .     D
C494   C495    1.384   .     D
C494   H325    1.087   .     S
C495   C496    1.397   .     S
C495   H326    1.085   .     S
C496   C497    1.398   .     D
C497   C498    1.385   .     S
C497   H327    1.085   .     S
C498   H328    1.086   .     S
C499   C500    1.386   .     D
C499   C504    1.407   .     S
C499   H329    1.087   .     S
C500   C501    1.397   .     S
C500   H330    1.085   .     S
C501   C193    1.474   1_565 S
C501   C502    1.396   1_565 D
C502   C501    1.396   1_545 D
C502   C503    1.383   1_545 S
C502   H331    1.085   .     S
C503   C502    1.383   1_565 S
C503   C504    1.407   .     D
C503   H332    1.086   .     S
H317   C481    1.086   1_655 S
H324   C492    1.085   1_655 S
C505   C506    1.398   .     D
C505   C510    1.398   .     S
C505   C613    1.471   .     S
C506   C507    1.383   .     S
C506   H333    1.085   .     S
C507   C508    1.405   .     D
C507   H334    1.086   .     S
C508   C509    1.409   .     S
C508   Si25    1.893   .     S
C509   C510    1.383   .     D
C509   H335    1.087   .     S
C510   H336    1.084   .     S
C511   C512    1.409   .     S
C511   C516    1.382   .     D
C511   H337    1.086   .     S
C512   C513    1.406   .     D
C512   Si25    1.902   1_554 S
C513   C514    1.385   .     S
C513   H338    1.086   .     S
C514   C515    1.397   .     D
C514   H339    1.085   .     S
C515   C516    1.398   .     S
C516   H340    1.085   .     S
Si25   C512    1.902   1_556 S
Si25   C517    1.911   1_556 S
Si25   C528    1.895   .     S
C517   Si25    1.911   1_554 S
C517   C518    1.406   .     D
C517   C522    1.409   .     S
C518   C519    1.385   .     S
C518   H341    1.086   .     S
C519   C520    1.396   .     D
C519   H342    1.085   .     S
C520   C521    1.398   .     S
C521   C522    1.382   .     D
C521   H445    1.085   .     S
C522   H343    1.087   .     S
C523   C524    1.385   .     D
C523   C528    1.406   .     S
C523   H344    1.087   .     S
C524   C525    1.405   1_455 S
C524   H345    1.086   .     S
C525   C524    1.405   1_655 S
C525   C526    1.408   1_656 D
C525   Si26    1.900   .     S
C526   C525    1.408   1_454 D
C526   C527    1.383   .     S
C526   H346    1.087   1_455 S
C527   C528    1.406   1_554 D
C527   H347    1.086   .     S
C528   C527    1.406   1_556 D
Si26   C532    1.897   1_556 S
Si26   C535    1.899   .     S
Si26   C546    1.900   .     S
C529   C530    1.396   .     S
C529   C534    1.397   .     D
C530   C531    1.385   .     D
C530   H348    1.085   .     S
C531   C532    1.404   .     S
C531   H349    1.086   .     S
C532   Si26    1.897   1_554 S
C532   C533    1.408   .     D
C533   C534    1.381   .     S
C533   H350    1.087   .     S
C534   H351    1.085   .     S
C535   C536    1.406   .     D
C535   C540    1.408   .     S
C536   C537    1.383   .     S
C536   H352    1.086   .     S
C537   C538    1.396   .     D
C537   H353    1.085   .     S
C538   C539    1.397   .     S
C539   C540    1.384   .     D
C539   H354    1.085   .     S
C540   H355    1.087   1_556 S
C541   C542    1.381   .     S
C541   C546    1.410   .     D
C541   H356    1.088   .     S
C542   C543    1.397   .     D
C542   H357    1.085   .     S
C543   C544    1.397   .     S
C544   C545    1.386   .     D
C544   H358    1.085   .     S
C545   C546    1.402   .     S
C545   H359    1.085   .     S
H346   C526    1.087   1_655 S
H355   C540    1.087   1_554 S
C547   C548    1.399   .     S
C547   C552    1.398   .     D
C548   C549    1.385   .     D
C548   H360    1.085   .     S
C549   C550    1.408   .     S
C549   H361    1.087   1_556 S
C550   C551    1.407   .     D
C550   Si27    1.897   1_556 S
C551   C552    1.384   .     S
C551   H362    1.086   .     S
C552   H363    1.084   .     S
H361   C549    1.087   1_554 S
C553   C554    1.404   .     D
C553   C558    1.389   1_545 S
C553   H364    1.086   .     S
C554   C555    1.410   .     S
C554   Si27    1.908   .     S
C555   C556    1.380   1_545 D
C555   H365    1.086   .     S
C556   C555    1.380   1_565 D
C556   C557    1.397   .     S
C556   H366    1.085   .     S
C557   C558    1.395   .     D
C558   C553    1.389   1_565 S
C558   H367    1.085   .     S
Si27   C550    1.897   1_554 S
Si27   C559    1.906   .     S
Si27   C570    1.903   .     S
C559   C560    1.409   .     D
C559   C564    1.406   .     S
C560   C561    1.382   .     S
C560   H368    1.086   .     S
C561   C562    1.399   .     D
C561   H369    1.085   .     S
C562   C563    1.396   .     S
C563   C564    1.386   .     D
C563   H370    1.085   .     S
C564   H371    1.086   .     S
C565   C566    1.384   1_655 D
C565   C570    1.408   1_556 S
C565   H372    1.088   .     S
C566   C565    1.384   1_455 D
C566   C567    1.404   1_556 S
C566   H373    1.086   1_545 S
C567   C566    1.404   1_554 S
C567   C568    1.408   .     D
C567   Si28    1.895   .     S
C568   C569    1.385   .     S
C568   H374    1.087   .     S
C569   C570    1.404   1_455 D
C569   H375    1.086   .     S
C570   C569    1.404   1_655 D
C570   C565    1.408   1_554 S
Si28   C574    1.898   .     S
Si28   C577    1.899   1_554 S
Si28   C588    1.903   1_544 S
C571   C572    1.399   .     S
C571   C576    1.397   1_565 D
C572   C573    1.383   .     D
C572   H376    1.085   .     S
C573   C574    1.407   1_565 S
C573   H377    1.087   .     S
C574   C573    1.407   1_545 S
C574   C575    1.405   .     D
C575   C576    1.384   .     S
C575   H378    1.086   .     S
C576   C571    1.397   1_545 D
C576   H379    1.085   .     S
C577   Si28    1.899   1_556 S
C577   C578    1.404   .     D
C577   C582    1.408   .     S
C578   C579    1.384   .     S
C578   H380    1.086   .     S
C579   C580    1.395   .     D
C579   H381    1.085   .     S
C580   C581    1.396   .     S
C580   C627    1.471   .     S
C581   C582    1.383   .     D
C581   H382    1.085   .     S
C582   H383    1.087   .     S
C583   C584    1.385   .     S
C583   C588    1.406   .     D
C583   H384    1.086   .     S
C584   C585    1.398   .     D
C584   H385    1.085   .     S
C585   C586    1.398   .     S
C586   C587    1.384   .     D
C586   H386    1.085   .     S
C587   C588    1.409   .     S
C587   H387    1.087   1_565 S
C588   Si28    1.903   1_566 S
H373   C566    1.086   1_565 S
H387   C587    1.087   1_545 S
C589   C590    1.398   .     S
C589   C594    1.397   .     D
C590   C591    1.384   .     D
C590   H388    1.085   .     S
C591   C592    1.409   .     S
C591   H389    1.087   .     S
C592   C593    1.406   .     D
C592   Si29    1.909   .     S
C593   C594    1.384   .     S
C593   H390    1.085   .     S
C594   H391    1.085   .     S
C595   C596    1.409   .     S
C595   C600    1.383   .     D
C595   H392    1.087   .     S
C596   C597    1.404   .     D
C596   Si29    1.891   .     S
C597   C598    1.385   .     S
C597   H393    1.086   .     S
C598   C599    1.397   .     D
C598   H394    1.085   .     S
C599   C600    1.395   .     S
C600   H395    1.085   .     S
Si29   C601    1.907   .     S
Si29   C612    1.899   .     S
C601   C602    1.410   .     S
C601   C606    1.409   .     D
C602   C603    1.384   .     D
C602   H396    1.086   .     S
C603   C604    1.397   .     S
C603   H397    1.085   .     S
C604   C605    1.399   .     D
C605   C606    1.382   .     S
C605   H398    1.085   .     S
C606   H399    1.085   .     S
C607   C608    1.385   .     D
C607   C612    1.404   .     S
C607   H400    1.086   .     S
C608   C609    1.407   .     S
C608   H401    1.087   .     S
C609   C610    1.404   .     D
C609   Si30    1.893   .     S
C610   C611    1.382   .     S
C610   H402    1.086   .     S
C611   C612    1.408   .     D
C611   H403    1.087   .     S
Si30   C616    1.904   .     S
Si30   C619    1.894   .     S
Si30   C630    1.897   .     S
C613   C614    1.398   .     S
C613   C618    1.398   .     D
C614   C615    1.383   .     D
C614   H404    1.084   .     S
C615   C616    1.407   .     S
C615   H405    1.086   .     S
C616   C617    1.407   .     D
C617   C618    1.383   .     S
C617   H406    1.086   .     S
C618   H407    1.085   .     S
C619   C620    1.406   .     D
C619   C624    1.408   .     S
C620   C621    1.384   .     S
C620   H408    1.086   .     S
C621   C622    1.396   .     D
C621   H409    1.085   .     S
C622   C623    1.397   .     S
C623   C624    1.383   .     D
C623   H410    1.085   .     S
C624   H411    1.086   .     S
C625   C626    1.383   .     D
C625   C630    1.407   .     S
C625   H412    1.086   .     S
C626   C627    1.396   .     S
C626   H446    1.085   .     S
C627   C628    1.396   .     D
C628   C629    1.383   .     S
C628   H413    1.085   .     S
C629   C630    1.406   .     D
C629   H414    1.086   .     S
C631   C632    1.397   .     S
C631   C636    1.399   .     D
C632   C633    1.382   .     D
C632   H447    1.085   .     S
C633   C634    1.409   .     S
C633   H415    1.086   .     S
C634   C635    1.406   .     D
C634   Si31    1.904   .     S
C635   C636    1.385   .     S
C635   H416    1.086   .     S
C636   H417    1.085   .     S
C637   C638    1.404   .     D
C637   C642    1.384   .     S
C637   H418    1.085   1_556 S
C638   C639    1.409   .     S
C638   Si31    1.895   1_556 S
C639   C640    1.383   .     D
C639   H419    1.087   .     S
C640   C641    1.396   .     S
C640   H420    1.085   .     S
C641   C642    1.395   .     D
C642   H421    1.085   .     S
Si31   C638    1.895   1_554 S
Si31   C643    1.902   .     S
Si31   C654    1.892   .     S
C643   C644    1.404   .     D
C643   C648    1.408   .     S
C644   C645    1.385   .     S
C644   H422    1.086   .     S
C645   C646    1.397   .     D
C645   H423    1.085   .     S
C646   C647    1.399   .     S
C647   C648    1.380   .     D
C647   H424    1.085   .     S
C648   H425    1.087   .     S
C649   C650    1.385   1_545 D
C649   C654    1.404   1_556 S
C649   H426    1.086   .     S
C650   C649    1.385   1_565 D
C650   C651    1.406   .     S
C650   H427    1.087   .     S
C651   C652    1.407   1_556 D
C651   Si32    1.899   .     S
C652   C651    1.407   1_554 D
C652   C653    1.382   .     S
C652   H428    1.086   .     S
C653   C654    1.407   1_565 D
C653   H429    1.088   .     S
C654   C653    1.407   1_545 D
C654   C649    1.404   1_554 S
Si32   C658    1.906   .     S
Si32   C661    1.900   1_556 S
Si32   C672    1.891   .     S
C655   C656    1.398   .     S
C655   C660    1.397   .     D
C656   C657    1.383   .     D
C656   H430    1.085   .     S
C657   C658    1.407   .     S
C657   H431    1.087   .     S
C658   C659    1.407   .     D
C659   C660    1.385   .     S
C659   H432    1.086   .     S
C660   H433    1.085   .     S
C661   Si32    1.900   1_554 S
C661   C662    1.407   .     S
C661   C666    1.408   .     D
C662   C663    1.386   .     D
C662   H434    1.087   .     S
C663   C664    1.397   .     S
C663   H435    1.085   .     S
C664   C665    1.397   .     D
C665   C666    1.382   .     S
C665   H436    1.085   .     S
C666   H437    1.086   1_554 S
C667   C668    1.384   .     D
C667   C672    1.407   .     S
C667   H438    1.086   .     S
C668   C669    1.398   .     S
C668   H439    1.085   .     S
C669   C670    1.397   .     D
C670   C671    1.383   .     S
C670   H440    1.085   .     S
C671   C672    1.408   .     D
C671   H441    1.086   .     S
H418   C637    1.085   1_554 S
H437   C666    1.086   1_556 S
