data_Si_crs_opt
_audit_creation_date              2023-12-02
_audit_creation_method            'Materials Studio'
_symmetry_space_group_name_H-M    'P1'
_symmetry_Int_Tables_number       1
_symmetry_cell_setting            triclinic
loop_
_symmetry_equiv_pos_as_xyz
  x,y,z
_cell_length_a                    38.6051
_cell_length_b                    35.0803
_cell_length_c                    37.9005
_cell_angle_alpha                 88.6090
_cell_angle_beta                  89.2822
_cell_angle_gamma                 90.2949
loop_
_atom_site_label
_atom_site_type_symbol
_atom_site_fract_x
_atom_site_fract_y
_atom_site_fract_z
_atom_site_U_iso_or_equiv
_atom_site_adp_type
_atom_site_occupancy
H1     H     0.87490   0.99486   0.06507   0.00000  Uiso   1.00
H2     H     0.80436   0.93155   0.14030   0.00000  Uiso   1.00
H3     H     0.83680   0.94906   0.08707   0.00000  Uiso   1.00
C1     C     0.96831   0.35743   0.48907   0.00000  Uiso   1.00
C2     C     0.96835   0.32806   0.51406   0.00000  Uiso   1.00
C3     C     0.98410   0.27835   0.57662   0.00000  Uiso   1.00
C4     C     0.98342   0.24964   0.60224   0.00000  Uiso   1.00
H4     H     0.97624   0.30692   0.58340   0.00000  Uiso   1.00
H5     H     0.97451   0.25637   0.62869   0.00000  Uiso   1.00
H6     H     0.94672   0.37718   0.48899   0.00000  Uiso   1.00
H7     H     0.94688   0.32514   0.53268   0.00000  Uiso   1.00
H8     H     0.27844   0.92788   0.62433   0.00000  Uiso   1.00
C5     C     0.10398   0.26731   0.06148   0.00000  Uiso   1.00
C6     C     0.07870   0.24189   0.05047   0.00000  Uiso   1.00
C7     C     0.08767   0.21140   0.02967   0.00000  Uiso   1.00
C8     C     0.12195   0.20526   0.01849   0.00000  Uiso   1.00
C9     C     0.14657   0.23282   0.02807   0.00000  Uiso   1.00
C10    C     0.13801   0.26279   0.04944   0.00000  Uiso   1.00
C11    C     0.17788   0.14354   0.01692   0.00000  Uiso   1.00
C12    C     0.20118   0.11911   0.99976   0.00000  Uiso   1.00
C13    C     0.23469   0.11367   0.01137   0.00000  Uiso   1.00
C14    C     0.24676   0.13247   0.04097   0.00000  Uiso   1.00
C15    C     0.22296   0.15365   0.06036   0.00000  Uiso   1.00
C16    C     0.18947   0.15884   0.04867   0.00000  Uiso   1.00
H9     H     0.05202   0.24533   0.05910   0.00000  Uiso   1.00
H10    H     0.06738   0.19172   0.02222   0.00000  Uiso   1.00
H11    H     0.17323   0.23041   0.01886   0.00000  Uiso   1.00
H12    H     0.15779   0.28307   0.05686   0.00000  Uiso   1.00
H13    H     0.19304   0.10469   0.97618   0.00000  Uiso   1.00
H14    H     0.25188   0.09521   0.99682   0.00000  Uiso   1.00
H15    H     0.23112   0.16781   0.08400   0.00000  Uiso   1.00
H16    H     0.17218   0.17628   0.06421   0.00000  Uiso   1.00
Si1    Si    0.99460   0.40403   0.43135   0.00000  Uiso   1.00
C17    C     0.05430   0.51323   0.46989   0.00000  Uiso   1.00
C18    C     0.05837   0.47840   0.48795   0.00000  Uiso   1.00
C19    C     0.04006   0.44637   0.47812   0.00000  Uiso   1.00
C20    C     0.01694   0.44744   0.44980   0.00000  Uiso   1.00
C21    C     0.01269   0.48302   0.43242   0.00000  Uiso   1.00
C22    C     0.03076   0.51513   0.44219   0.00000  Uiso   1.00
C23    C     0.01689   0.39311   0.38795   0.00000  Uiso   1.00
C24    C     0.99976   0.37244   0.36312   0.00000  Uiso   1.00
C25    C     0.01048   0.36614   0.32939   0.00000  Uiso   1.00
C26    C     0.04180   0.38337   0.31786   0.00000  Uiso   1.00
C27    C     0.06101   0.40346   0.34245   0.00000  Uiso   1.00
C28    C     0.04945   0.40790   0.37676   0.00000  Uiso   1.00
C29    C     0.02209   0.33535   0.46534   0.00000  Uiso   1.00
C30    C     0.02221   0.30575   0.49020   0.00000  Uiso   1.00
C31    C     0.99541   0.30177   0.51513   0.00000  Uiso   1.00
C32    C     0.99525   0.36225   0.46399   0.00000  Uiso   1.00
H17    H     0.07593   0.47635   0.51003   0.00000  Uiso   1.00
H18    H     0.04400   0.41974   0.49271   0.00000  Uiso   1.00
H19    H     0.99495   0.48545   0.41044   0.00000  Uiso   1.00
H20    H     0.02726   0.54178   0.42759   0.00000  Uiso   1.00
H21    H     0.99560   0.34884   0.31170   0.00000  Uiso   1.00
H22    H     0.08520   0.41703   0.33426   0.00000  Uiso   1.00
H23    H     0.06502   0.42399   0.39492   0.00000  Uiso   1.00
H24    H     0.04345   0.33768   0.44645   0.00000  Uiso   1.00
H25    H     0.04362   0.28584   0.49062   0.00000  Uiso   1.00
C33    C     0.50258   0.06037   0.46865   0.00000  Uiso   1.00
C34    C     0.47963   0.04396   0.49352   0.00000  Uiso   1.00
C35    C     0.44609   0.03446   0.48437   0.00000  Uiso   1.00
C36    C     0.43371   0.04059   0.45002   0.00000  Uiso   1.00
C37    C     0.45785   0.05513   0.42493   0.00000  Uiso   1.00
C38    C     0.49118   0.06507   0.43392   0.00000  Uiso   1.00
H26    H     0.48792   0.03870   0.52043   0.00000  Uiso   1.00
H27    H     0.42894   0.02234   0.50467   0.00000  Uiso   1.00
H28    H     0.45004   0.05956   0.39768   0.00000  Uiso   1.00
H29    H     0.50821   0.07775   0.41387   0.00000  Uiso   1.00
C39    C     0.39295   0.10795   0.40792   0.00000  Uiso   1.00
C40    C     0.37586   0.07268   0.40466   0.00000  Uiso   1.00
C41    C     0.35368   0.06961   0.37568   0.00000  Uiso   1.00
C42    C     0.35168   0.09801   0.34977   0.00000  Uiso   1.00
C43    C     0.37132   0.13138   0.35204   0.00000  Uiso   1.00
C44    C     0.39072   0.13665   0.38242   0.00000  Uiso   1.00
Si2    Si    0.38780   0.03074   0.43470   0.00000  Uiso   1.00
C45    C     0.35797   0.02404   0.47451   0.00000  Uiso   1.00
C46    C     0.33395   0.99392   0.47820   0.00000  Uiso   1.00
C47    C     0.31455   0.98798   0.50881   0.00000  Uiso   1.00
C48    C     0.31830   0.01191   0.53746   0.00000  Uiso   1.00
C49    C     0.34100   0.04296   0.53376   0.00000  Uiso   1.00
C50    C     0.36018   0.04887   0.50303   0.00000  Uiso   1.00
H30    H     0.40926   0.11267   0.43056   0.00000  Uiso   1.00
H31    H     0.33807   0.04404   0.37292   0.00000  Uiso   1.00
H32    H     0.33505   0.09401   0.32728   0.00000  Uiso   1.00
H33    H     0.40556   0.16271   0.38527   0.00000  Uiso   1.00
H34    H     0.33064   0.97436   0.45670   0.00000  Uiso   1.00
H35    H     0.29630   0.96436   0.51046   0.00000  Uiso   1.00
H36    H     0.34443   0.06207   0.55554   0.00000  Uiso   1.00
H37    H     0.37780   0.07312   0.50128   0.00000  Uiso   1.00
C51    C     0.79616   0.95638   0.12499   0.00000  Uiso   1.00
C52    C     0.76711   0.97717   0.13603   0.00000  Uiso   1.00
C53    C     0.75836   0.00910   0.11480   0.00000  Uiso   1.00
C54    C     0.77691   0.01917   0.08443   0.00000  Uiso   1.00
C55    C     0.80554   0.99788   0.07387   0.00000  Uiso   1.00
C56    C     0.81492   0.96639   0.09482   0.00000  Uiso   1.00
Si3    Si    0.73993   0.96165   0.17614   0.00000  Uiso   1.00
C57    C     0.73184   0.00358   0.20583   0.00000  Uiso   1.00
C58    C     0.69793   0.01368   0.21572   0.00000  Uiso   1.00
C59    C     0.69116   0.04522   0.23582   0.00000  Uiso   1.00
C60    C     0.71806   0.06853   0.24718   0.00000  Uiso   1.00
C61    C     0.75197   0.05903   0.23771   0.00000  Uiso   1.00
C62    C     0.75858   0.02737   0.21758   0.00000  Uiso   1.00
H38    H     0.73643   0.02657   0.12231   0.00000  Uiso   1.00
H39    H     0.76934   0.04413   0.06897   0.00000  Uiso   1.00
H40    H     0.67617   0.99655   0.20730   0.00000  Uiso   1.00
H41    H     0.66452   0.05225   0.24222   0.00000  Uiso   1.00
H42    H     0.77342   0.07638   0.24645   0.00000  Uiso   1.00
H43    H     0.78529   0.02095   0.21068   0.00000  Uiso   1.00
C63    C     0.76855   0.34942   0.35266   0.00000  Uiso   1.00
C64    C     0.76064   0.38600   0.33985   0.00000  Uiso   1.00
C65    C     0.78043   0.41726   0.34898   0.00000  Uiso   1.00
C66    C     0.80907   0.41381   0.37134   0.00000  Uiso   1.00
C67    C     0.81721   0.37653   0.38302   0.00000  Uiso   1.00
C68    C     0.79771   0.34521   0.37387   0.00000  Uiso   1.00
H44    H     0.73820   0.39025   0.32328   0.00000  Uiso   1.00
H45    H     0.77308   0.44524   0.33877   0.00000  Uiso   1.00
H46    H     0.83929   0.37187   0.40005   0.00000  Uiso   1.00
H47    H     0.80529   0.31708   0.38335   0.00000  Uiso   1.00
C69    C     0.78551   0.44145   0.44991   0.00000  Uiso   1.00
C70    C     0.80951   0.46702   0.43405   0.00000  Uiso   1.00
C71    C     0.81833   0.49920   0.45361   0.00000  Uiso   1.00
C72    C     0.80526   0.50466   0.48730   0.00000  Uiso   1.00
C73    C     0.78217   0.47831   0.50286   0.00000  Uiso   1.00
C74    C     0.77199   0.44699   0.48334   0.00000  Uiso   1.00
Si4    Si    0.83341   0.45496   0.39163   0.00000  Uiso   1.00
C75    C     0.84048   0.49969   0.36303   0.00000  Uiso   1.00
C76    C     0.87444   0.51319   0.35672   0.00000  Uiso   1.00
C77    C     0.88122   0.54679   0.33803   0.00000  Uiso   1.00
C78    C     0.85429   0.56884   0.32432   0.00000  Uiso   1.00
C79    C     0.82033   0.55604   0.33030   0.00000  Uiso   1.00
C80    C     0.81371   0.52241   0.34920   0.00000  Uiso   1.00
C81    C     0.89454   0.44946   0.43536   0.00000  Uiso   1.00
C82    C     0.92830   0.43957   0.44314   0.00000  Uiso   1.00
C83    C     0.94808   0.41668   0.42067   0.00000  Uiso   1.00
C84    C     0.93166   0.40419   0.39018   0.00000  Uiso   1.00
C85    C     0.89809   0.41448   0.38211   0.00000  Uiso   1.00
C86    C     0.87834   0.43765   0.40444   0.00000  Uiso   1.00
H48    H     0.77746   0.41632   0.43591   0.00000  Uiso   1.00
H49    H     0.83609   0.52038   0.44220   0.00000  Uiso   1.00
H50    H     0.81294   0.52967   0.50163   0.00000  Uiso   1.00
H51    H     0.75409   0.42614   0.49492   0.00000  Uiso   1.00
H52    H     0.89627   0.49709   0.36681   0.00000  Uiso   1.00
H53    H     0.90785   0.55628   0.33454   0.00000  Uiso   1.00
H54    H     0.79884   0.57233   0.31973   0.00000  Uiso   1.00
H55    H     0.78692   0.51356   0.35335   0.00000  Uiso   1.00
H56    H     0.88045   0.46711   0.45376   0.00000  Uiso   1.00
H57    H     0.93969   0.45005   0.46716   0.00000  Uiso   1.00
H58    H     0.94613   0.38614   0.37215   0.00000  Uiso   1.00
H59    H     0.88691   0.40452   0.35780   0.00000  Uiso   1.00
C87    C     0.38745   0.98009   0.37320   0.00000  Uiso   1.00
C88    C     0.39234   0.94517   0.35765   0.00000  Uiso   1.00
C89    C     0.40146   0.91235   0.37741   0.00000  Uiso   1.00
C90    C     0.40521   0.91693   0.41390   0.00000  Uiso   1.00
C91    C     0.39975   0.95166   0.42949   0.00000  Uiso   1.00
C92    C     0.39057   0.98451   0.40973   0.00000  Uiso   1.00
Si5    Si    0.40671   0.86465   0.35536   0.00000  Uiso   1.00
C93    C     0.29612   0.81932   0.32332   0.00000  Uiso   1.00
C94    C     0.32625   0.79914   0.31535   0.00000  Uiso   1.00
C95    C     0.35851   0.81395   0.32280   0.00000  Uiso   1.00
C96    C     0.36260   0.84972   0.33829   0.00000  Uiso   1.00
C97    C     0.33204   0.87016   0.34478   0.00000  Uiso   1.00
C98    C     0.29959   0.85541   0.33762   0.00000  Uiso   1.00
C99    C     0.41750   0.82705   0.39037   0.00000  Uiso   1.00
C100   C     0.44777   0.80516   0.39244   0.00000  Uiso   1.00
C101   C     0.45282   0.77854   0.41953   0.00000  Uiso   1.00
C102   C     0.42791   0.77318   0.44617   0.00000  Uiso   1.00
C103   C     0.39759   0.79474   0.44467   0.00000  Uiso   1.00
C104   C     0.39249   0.82071   0.41729   0.00000  Uiso   1.00
C105   C     0.44954   0.83664   0.29831   0.00000  Uiso   1.00
C106   C     0.47300   0.83956   0.27044   0.00000  Uiso   1.00
C107   C     0.48899   0.87438   0.26166   0.00000  Uiso   1.00
C108   C     0.48149   0.90572   0.28239   0.00000  Uiso   1.00
C109   C     0.45817   0.90253   0.31034   0.00000  Uiso   1.00
C110   C     0.44091   0.86810   0.31897   0.00000  Uiso   1.00
H60    H     0.38105   0.00446   0.35637   0.00000  Uiso   1.00
H61    H     0.38903   0.94332   0.32930   0.00000  Uiso   1.00
H62    H     0.41255   0.89273   0.43054   0.00000  Uiso   1.00
H63    H     0.40287   0.95349   0.45789   0.00000  Uiso   1.00
H64    H     0.32431   0.77096   0.30436   0.00000  Uiso   1.00
H65    H     0.38119   0.79686   0.31703   0.00000  Uiso   1.00
H66    H     0.33359   0.89818   0.35625   0.00000  Uiso   1.00
H67    H     0.27670   0.87211   0.34332   0.00000  Uiso   1.00
H68    H     0.46789   0.80895   0.37235   0.00000  Uiso   1.00
H69    H     0.47659   0.76218   0.42028   0.00000  Uiso   1.00
H70    H     0.37762   0.79048   0.46479   0.00000  Uiso   1.00
H71    H     0.36834   0.83652   0.41663   0.00000  Uiso   1.00
H72    H     0.43742   0.80913   0.30402   0.00000  Uiso   1.00
H73    H     0.47838   0.81473   0.25479   0.00000  Uiso   1.00
H74    H     0.49425   0.93285   0.27675   0.00000  Uiso   1.00
H75    H     0.45320   0.92762   0.32581   0.00000  Uiso   1.00
C111   C     0.80425   0.85577   0.21708   0.00000  Uiso   1.00
C112   C     0.80307   0.88793   0.23798   0.00000  Uiso   1.00
C113   C     0.78326   0.91923   0.22808   0.00000  Uiso   1.00
C114   C     0.76336   0.91962   0.19734   0.00000  Uiso   1.00
C115   C     0.76363   0.88604   0.17763   0.00000  Uiso   1.00
C116   C     0.78369   0.85502   0.18702   0.00000  Uiso   1.00
H76    H     0.81861   0.88895   0.26160   0.00000  Uiso   1.00
H77    H     0.78362   0.94417   0.24451   0.00000  Uiso   1.00
H78    H     0.74797   0.88444   0.15406   0.00000  Uiso   1.00
H79    H     0.78347   0.82984   0.17096   0.00000  Uiso   1.00
C117   C     0.68215   0.94989   0.12794   0.00000  Uiso   1.00
C118   C     0.64973   0.93633   0.11906   0.00000  Uiso   1.00
C119   C     0.62895   0.91505   0.14317   0.00000  Uiso   1.00
C120   C     0.64288   0.90821   0.17681   0.00000  Uiso   1.00
C121   C     0.67528   0.92177   0.18565   0.00000  Uiso   1.00
C122   C     0.69605   0.94314   0.16155   0.00000  Uiso   1.00
Si6    Si    0.58540   0.89467   0.12996   0.00000  Uiso   1.00
C123   C     0.52848   0.98346   0.06192   0.00000  Uiso   1.00
C124   C     0.52526   0.94791   0.05648   0.00000  Uiso   1.00
C125   C     0.54074   0.91766   0.07266   0.00000  Uiso   1.00
C126   C     0.56327   0.93065   0.09946   0.00000  Uiso   1.00
C127   C     0.56692   0.96996   0.10548   0.00000  Uiso   1.00
C128   C     0.54953   0.99893   0.08663   0.00000  Uiso   1.00
C129   C     0.55615   0.88716   0.17022   0.00000  Uiso   1.00
C130   C     0.55761   0.85469   0.19266   0.00000  Uiso   1.00
C131   C     0.53623   0.85029   0.22211   0.00000  Uiso   1.00
C132   C     0.51240   0.87850   0.23079   0.00000  Uiso   1.00
C133   C     0.51073   0.91112   0.20902   0.00000  Uiso   1.00
C134   C     0.53198   0.91519   0.17952   0.00000  Uiso   1.00
C135   C     0.57123   0.81658   0.10802   0.00000  Uiso   1.00
C136   C     0.57843   0.78352   0.09010   0.00000  Uiso   1.00
C137   C     0.60840   0.78076   0.06934   0.00000  Uiso   1.00
C138   C     0.63098   0.81202   0.06735   0.00000  Uiso   1.00
C139   C     0.62380   0.84477   0.08556   0.00000  Uiso   1.00
C140   C     0.59365   0.84831   0.10648   0.00000  Uiso   1.00
H80    H     0.69705   0.96612   0.10819   0.00000  Uiso   1.00
H81    H     0.64022   0.94253   0.09268   0.00000  Uiso   1.00
H82    H     0.62796   0.89191   0.19651   0.00000  Uiso   1.00
H83    H     0.68487   0.91557   0.21202   0.00000  Uiso   1.00
H84    H     0.48442   0.02271   0.05483   0.00000  Uiso   1.00
H85    H     0.53737   0.88777   0.06708   0.00000  Uiso   1.00
H86    H     0.58439   0.97897   0.12596   0.00000  Uiso   1.00
H87    H     0.55313   0.02885   0.09193   0.00000  Uiso   1.00
H88    H     0.57595   0.83222   0.18689   0.00000  Uiso   1.00
H89    H     0.53834   0.82487   0.23882   0.00000  Uiso   1.00
H90    H     0.49212   0.93322   0.21489   0.00000  Uiso   1.00
H91    H     0.52960   0.94085   0.16312   0.00000  Uiso   1.00
H92    H     0.54750   0.81776   0.12365   0.00000  Uiso   1.00
H93    H     0.56032   0.75978   0.09184   0.00000  Uiso   1.00
H94    H     0.65472   0.81038   0.05186   0.00000  Uiso   1.00
H95    H     0.64221   0.86829   0.08357   0.00000  Uiso   1.00
C141   C     0.61674   0.74612   0.04977   0.00000  Uiso   1.00
C142   C     0.61181   0.70967   0.06469   0.00000  Uiso   1.00
C143   C     0.62153   0.67761   0.04643   0.00000  Uiso   1.00
C144   C     0.63627   0.68018   0.01231   0.00000  Uiso   1.00
C145   C     0.64018   0.71716   0.99752   0.00000  Uiso   1.00
C146   C     0.63079   0.74930   0.01569   0.00000  Uiso   1.00
C147   C     0.69732   0.62406   0.00812   0.00000  Uiso   1.00
C148   C     0.72212   0.60347   0.98891   0.00000  Uiso   1.00
C149   C     0.75550   0.59819   0.00087   0.00000  Uiso   1.00
C150   C     0.76562   0.61287   0.03309   0.00000  Uiso   1.00
C151   C     0.74087   0.63135   0.05359   0.00000  Uiso   1.00
C152   C     0.70765   0.63697   0.04122   0.00000  Uiso   1.00
H96    H     0.60103   0.70642   0.09118   0.00000  Uiso   1.00
H97    H     0.61780   0.64979   0.05918   0.00000  Uiso   1.00
H98    H     0.65105   0.72096   0.97109   0.00000  Uiso   1.00
H99    H     0.63416   0.77723   0.00317   0.00000  Uiso   1.00
H100   H     0.71530   0.59191   0.96357   0.00000  Uiso   1.00
H101   H     0.77401   0.58275   0.98495   0.00000  Uiso   1.00
H102   H     0.74811   0.64275   0.07882   0.00000  Uiso   1.00
H103   H     0.68945   0.65253   0.05746   0.00000  Uiso   1.00
C153   C     0.23614   0.11344   0.77728   0.00000  Uiso   1.00
C154   C     0.24338   0.14986   0.76329   0.00000  Uiso   1.00
C155   C     0.23284   0.18201   0.78094   0.00000  Uiso   1.00
C156   C     0.21495   0.17953   0.81348   0.00000  Uiso   1.00
C157   C     0.21015   0.14260   0.82816   0.00000  Uiso   1.00
C158   C     0.22037   0.11036   0.81059   0.00000  Uiso   1.00
H104   H     0.25606   0.15300   0.73767   0.00000  Uiso   1.00
H105   H     0.23792   0.20983   0.76868   0.00000  Uiso   1.00
H106   H     0.19745   0.13885   0.85374   0.00000  Uiso   1.00
H107   H     0.21570   0.08243   0.82268   0.00000  Uiso   1.00
C159   C     0.13388   0.18506   0.79480   0.00000  Uiso   1.00
C160   C     0.14983   0.22063   0.80014   0.00000  Uiso   1.00
C161   C     0.13737   0.25158   0.77995   0.00000  Uiso   1.00
C162   C     0.11132   0.24719   0.75549   0.00000  Uiso   1.00
C163   C     0.09650   0.21145   0.74994   0.00000  Uiso   1.00
C164   C     0.10805   0.18045   0.77039   0.00000  Uiso   1.00
Si7    Si    0.18806   0.22039   0.83126   0.00000  Uiso   1.00
C165   C     0.21094   0.26817   0.83409   0.00000  Uiso   1.00
C166   C     0.21487   0.28416   0.86752   0.00000  Uiso   1.00
C167   C     0.23223   0.31819   0.87196   0.00000  Uiso   1.00
C168   C     0.24650   0.33835   0.84302   0.00000  Uiso   1.00
C169   C     0.24217   0.32363   0.80946   0.00000  Uiso   1.00
C170   C     0.22494   0.28929   0.80523   0.00000  Uiso   1.00
C171   C     0.13864   0.20632   0.88943   0.00000  Uiso   1.00
C172   C     0.12927   0.19442   0.92333   0.00000  Uiso   1.00
C173   C     0.15376   0.18075   0.94771   0.00000  Uiso   1.00
C174   C     0.18849   0.18140   0.93623   0.00000  Uiso   1.00
C175   C     0.19789   0.19343   0.90241   0.00000  Uiso   1.00
C176   C     0.17325   0.20572   0.87763   0.00000  Uiso   1.00
Si8    Si    0.13832   0.16271   0.99306   0.00000  Uiso   1.00
C177   C     0.07762   0.11854   0.01372   0.00000  Uiso   1.00
C178   C     0.04666   0.09991   0.00764   0.00000  Uiso   1.00
C179   C     0.03772   0.08968   0.97352   0.00000  Uiso   1.00
C180   C     0.06166   0.09675   0.94619   0.00000  Uiso   1.00
C181   C     0.09244   0.11564   0.95243   0.00000  Uiso   1.00
C182   C     0.10102   0.12835   0.98614   0.00000  Uiso   1.00
H108   H     0.14235   0.16012   0.80987   0.00000  Uiso   1.00
H109   H     0.14841   0.27979   0.78326   0.00000  Uiso   1.00
H110   H     0.10237   0.27196   0.74060   0.00000  Uiso   1.00
H111   H     0.09737   0.15223   0.76652   0.00000  Uiso   1.00
H112   H     0.20414   0.26958   0.89080   0.00000  Uiso   1.00
H113   H     0.23446   0.32953   0.89821   0.00000  Uiso   1.00
H114   H     0.25298   0.33879   0.78654   0.00000  Uiso   1.00
H115   H     0.22245   0.27852   0.77875   0.00000  Uiso   1.00
H116   H     0.11857   0.21608   0.87156   0.00000  Uiso   1.00
H117   H     0.10209   0.19551   0.93109   0.00000  Uiso   1.00
H118   H     0.20871   0.17203   0.95405   0.00000  Uiso   1.00
H119   H     0.22515   0.19303   0.89484   0.00000  Uiso   1.00
H120   H     0.08365   0.12613   0.04059   0.00000  Uiso   1.00
H121   H     0.02912   0.09337   0.02957   0.00000  Uiso   1.00
H122   H     0.05558   0.08865   0.91952   0.00000  Uiso   1.00
H123   H     0.11000   0.12124   0.93029   0.00000  Uiso   1.00
C183   C     0.30046   0.00361   0.57136   0.00000  Uiso   1.00
C184   C     0.28954   0.03262   0.59345   0.00000  Uiso   1.00
C185   C     0.27551   0.02415   0.62656   0.00000  Uiso   1.00
C186   C     0.27172   0.98646   0.63937   0.00000  Uiso   1.00
C187   C     0.28147   0.95762   0.61606   0.00000  Uiso   1.00
C188   C     0.29555   0.96583   0.58303   0.00000  Uiso   1.00
C189   C     0.27666   0.04224   0.71615   0.00000  Uiso   1.00
C190   C     0.27252   0.07428   0.73639   0.00000  Uiso   1.00
C191   C     0.24251   0.07902   0.75671   0.00000  Uiso   1.00
C192   C     0.21712   0.05051   0.75641   0.00000  Uiso   1.00
C193   C     0.22123   0.01881   0.73581   0.00000  Uiso   1.00
C194   C     0.25095   0.01374   0.71466   0.00000  Uiso   1.00
H124   H     0.29203   0.06219   0.58469   0.00000  Uiso   1.00
H125   H     0.26761   0.04759   0.64300   0.00000  Uiso   1.00
H126   H     0.30374   0.94264   0.56650   0.00000  Uiso   1.00
H127   H     0.30049   0.03932   0.70091   0.00000  Uiso   1.00
H128   H     0.29289   0.09570   0.73666   0.00000  Uiso   1.00
H129   H     0.19348   0.05369   0.77182   0.00000  Uiso   1.00
H130   H     0.20067   0.99756   0.73595   0.00000  Uiso   1.00
C195   C     0.02208   0.19022   0.66868   0.00000  Uiso   1.00
C196   C     0.04744   0.21890   0.66464   0.00000  Uiso   1.00
C197   C     0.07103   0.22631   0.69088   0.00000  Uiso   1.00
C198   C     0.07027   0.20543   0.72274   0.00000  Uiso   1.00
C199   C     0.04475   0.17728   0.72754   0.00000  Uiso   1.00
C200   C     0.02156   0.16974   0.70109   0.00000  Uiso   1.00
C201   C     0.00512   0.20539   0.56040   0.00000  Uiso   1.00
C202   C     0.00600   0.23409   0.53460   0.00000  Uiso   1.00
C203   C     0.99533   0.27098   0.54227   0.00000  Uiso   1.00
C204   C     0.99380   0.21217   0.59500   0.00000  Uiso   1.00
H131   H     0.04901   0.23565   0.64018   0.00000  Uiso   1.00
H132   H     0.09074   0.24807   0.68621   0.00000  Uiso   1.00
H133   H     0.04294   0.16116   0.75228   0.00000  Uiso   1.00
H134   H     0.00257   0.14709   0.70560   0.00000  Uiso   1.00
H135   H     0.01335   0.17696   0.55341   0.00000  Uiso   1.00
H136   H     0.01451   0.22762   0.50803   0.00000  Uiso   1.00
C205   C     0.00347   0.07340   0.96588   0.00000  Uiso   1.00
C206   C     0.97372   0.08726   0.98246   0.00000  Uiso   1.00
C207   C     0.94129   0.07345   0.97406   0.00000  Uiso   1.00
C208   C     0.93685   0.04503   0.94894   0.00000  Uiso   1.00
C209   C     0.96717   0.03128   0.93281   0.00000  Uiso   1.00
C210   C     0.99967   0.04507   0.94095   0.00000  Uiso   1.00
H137   H     0.97598   0.10959   0.00162   0.00000  Uiso   1.00
H138   H     0.91872   0.08512   0.98730   0.00000  Uiso   1.00
H139   H     0.96526   0.00915   0.91336   0.00000  Uiso   1.00
H140   H     0.02239   0.03340   0.92810   0.00000  Uiso   1.00
C211   C     0.88861   0.09118   0.88861   0.00000  Uiso   1.00
C212   C     0.87285   0.05695   0.90057   0.00000  Uiso   1.00
C213   C     0.84411   0.04446   0.88136   0.00000  Uiso   1.00
C214   C     0.83291   0.06378   0.85137   0.00000  Uiso   1.00
C215   C     0.84973   0.09703   0.83930   0.00000  Uiso   1.00
C216   C     0.87727   0.11090   0.85889   0.00000  Uiso   1.00
Si9    Si    0.89249   0.02602   0.93684   0.00000  Uiso   1.00
C217   C     0.86492   0.02165   0.97860   0.00000  Uiso   1.00
C218   C     0.88066   0.01030   0.01045   0.00000  Uiso   1.00
C219   C     0.86163   0.00331   0.04109   0.00000  Uiso   1.00
C220   C     0.82565   0.00742   0.04153   0.00000  Uiso   1.00
C221   C     0.80958   0.01959   0.01046   0.00000  Uiso   1.00
C222   C     0.82880   0.02639   0.97980   0.00000  Uiso   1.00
H141   H     0.91066   0.10240   0.90263   0.00000  Uiso   1.00
H142   H     0.83045   0.01861   0.88987   0.00000  Uiso   1.00
H143   H     0.81089   0.05295   0.83710   0.00000  Uiso   1.00
H144   H     0.89070   0.13673   0.85008   0.00000  Uiso   1.00
H145   H     0.90859   0.00681   0.01125   0.00000  Uiso   1.00
H146   H     0.78167   0.02296   0.01006   0.00000  Uiso   1.00
H147   H     0.81530   0.03544   0.95607   0.00000  Uiso   1.00
C223   C     0.79857   0.30932   0.69561   0.00000  Uiso   1.00
C224   C     0.77537   0.28102   0.70763   0.00000  Uiso   1.00
C225   C     0.78537   0.24324   0.70959   0.00000  Uiso   1.00
C226   C     0.81894   0.23171   0.69981   0.00000  Uiso   1.00
C227   C     0.84227   0.26084   0.68932   0.00000  Uiso   1.00
C228   C     0.83244   0.29871   0.68727   0.00000  Uiso   1.00
H148   H     0.74890   0.28852   0.71433   0.00000  Uiso   1.00
H149   H     0.76641   0.22188   0.71827   0.00000  Uiso   1.00
H150   H     0.86871   0.25370   0.68207   0.00000  Uiso   1.00
H151   H     0.85126   0.32025   0.67888   0.00000  Uiso   1.00
C229   C     0.79566   0.18515   0.62987   0.00000  Uiso   1.00
C230   C     0.79693   0.16213   0.66084   0.00000  Uiso   1.00
C231   C     0.77375   0.13120   0.66289   0.00000  Uiso   1.00
C232   C     0.75055   0.12398   0.63617   0.00000  Uiso   1.00
C233   C     0.74931   0.14754   0.60597   0.00000  Uiso   1.00
C234   C     0.77257   0.17820   0.60322   0.00000  Uiso   1.00
Si10   Si    0.82871   0.17898   0.69509   0.00000  Uiso   1.00
C235   C     0.82790   0.15333   0.73972   0.00000  Uiso   1.00
C236   C     0.83287   0.17398   0.77065   0.00000  Uiso   1.00
C237   C     0.83906   0.15606   0.80288   0.00000  Uiso   1.00
C238   C     0.84021   0.11635   0.80585   0.00000  Uiso   1.00
C239   C     0.83396   0.09524   0.77577   0.00000  Uiso   1.00
C240   C     0.82827   0.11335   0.74352   0.00000  Uiso   1.00
C241   C     0.88326   0.16398   0.64256   0.00000  Uiso   1.00
C242   C     0.91717   0.16440   0.63025   0.00000  Uiso   1.00
C243   C     0.94480   0.17626   0.65129   0.00000  Uiso   1.00
C244   C     0.93613   0.18781   0.68550   0.00000  Uiso   1.00
C245   C     0.90225   0.18728   0.69785   0.00000  Uiso   1.00
C246   C     0.87462   0.17551   0.67677   0.00000  Uiso   1.00
Si11   Si    0.99080   0.17601   0.63291   0.00000  Uiso   1.00
C247   C     0.02668   0.04901   0.61918   0.00000  Uiso   1.00
C248   C     0.04861   0.07952   0.60978   0.00000  Uiso   1.00
C249   C     0.03688   0.11668   0.61101   0.00000  Uiso   1.00
C250   C     0.00273   0.12535   0.62140   0.00000  Uiso   1.00
C251   C     0.98061   0.09412   0.62874   0.00000  Uiso   1.00
C252   C     0.99219   0.05689   0.62765   0.00000  Uiso   1.00
H152   H     0.81293   0.20963   0.62685   0.00000  Uiso   1.00
H153   H     0.77357   0.11235   0.68604   0.00000  Uiso   1.00
H154   H     0.73324   0.09959   0.63887   0.00000  Uiso   1.00
H155   H     0.77197   0.19742   0.58039   0.00000  Uiso   1.00
H156   H     0.83226   0.20494   0.76935   0.00000  Uiso   1.00
H157   H     0.84303   0.17308   0.82603   0.00000  Uiso   1.00
H158   H     0.83472   0.06434   0.77746   0.00000  Uiso   1.00
H159   H     0.82451   0.09594   0.72054   0.00000  Uiso   1.00
H160   H     0.86297   0.15453   0.62514   0.00000  Uiso   1.00
H161   H     0.92242   0.15547   0.60343   0.00000  Uiso   1.00
H162   H     0.95633   0.19751   0.70289   0.00000  Uiso   1.00
H163   H     0.89700   0.19630   0.72464   0.00000  Uiso   1.00
H164   H     0.07547   0.07416   0.60285   0.00000  Uiso   1.00
H165   H     0.05497   0.13974   0.60458   0.00000  Uiso   1.00
H166   H     0.95378   0.09901   0.63620   0.00000  Uiso   1.00
H167   H     0.97430   0.03367   0.63386   0.00000  Uiso   1.00
C253   C     0.03427   0.86385   0.75606   0.00000  Uiso   1.00
C254   C     0.03063   0.84273   0.72554   0.00000  Uiso   1.00
C255   C     0.05191   0.84965   0.69638   0.00000  Uiso   1.00
C256   C     0.07783   0.87794   0.69605   0.00000  Uiso   1.00
C257   C     0.08242   0.89726   0.72781   0.00000  Uiso   1.00
C258   C     0.06132   0.89044   0.75707   0.00000  Uiso   1.00
H168   H     0.01012   0.82159   0.72410   0.00000  Uiso   1.00
H169   H     0.04775   0.83303   0.67301   0.00000  Uiso   1.00
H170   H     0.10275   0.91868   0.72942   0.00000  Uiso   1.00
H171   H     0.06571   0.90618   0.78090   0.00000  Uiso   1.00
C259   C     0.04531   0.95285   0.65966   0.00000  Uiso   1.00
C260   C     0.07225   0.93875   0.63845   0.00000  Uiso   1.00
C261   C     0.08126   0.96093   0.60821   0.00000  Uiso   1.00
C262   C     0.06596   0.99580   0.60084   0.00000  Uiso   1.00
C263   C     0.04049   0.01013   0.62336   0.00000  Uiso   1.00
C264   C     0.02974   0.98752   0.65234   0.00000  Uiso   1.00
Si12   Si    0.09999   0.89718   0.65416   0.00000  Uiso   1.00
C265   C     0.10524   0.85857   0.62029   0.00000  Uiso   1.00
C266   C     0.13802   0.84589   0.60922   0.00000  Uiso   1.00
C267   C     0.14186   0.81564   0.58679   0.00000  Uiso   1.00
C268   C     0.11297   0.79619   0.57443   0.00000  Uiso   1.00
C269   C     0.08011   0.80876   0.58443   0.00000  Uiso   1.00
C270   C     0.07646   0.83940   0.60652   0.00000  Uiso   1.00
C271   C     0.15259   0.95663   0.65951   0.00000  Uiso   1.00
C272   C     0.18513   0.97092   0.66671   0.00000  Uiso   1.00
C273   C     0.21185   0.94755   0.67979   0.00000  Uiso   1.00
C274   C     0.20345   0.90887   0.68537   0.00000  Uiso   1.00
C275   C     0.17072   0.89464   0.67856   0.00000  Uiso   1.00
C276   C     0.14418   0.91788   0.66499   0.00000  Uiso   1.00
Si13   Si    0.25593   0.97101   0.68533   0.00000  Uiso   1.00
C277   C     0.28918   0.93562   0.70258   0.00000  Uiso   1.00
C278   C     0.28135   0.90703   0.72815   0.00000  Uiso   1.00
C279   C     0.30411   0.87768   0.73581   0.00000  Uiso   1.00
C280   C     0.33619   0.87573   0.71848   0.00000  Uiso   1.00
C281   C     0.34565   0.90567   0.69528   0.00000  Uiso   1.00
C282   C     0.32269   0.93471   0.68757   0.00000  Uiso   1.00
H172   H     0.03669   0.93671   0.68298   0.00000  Uiso   1.00
H173   H     0.10122   0.95085   0.59029   0.00000  Uiso   1.00
H174   H     0.07404   0.01222   0.57752   0.00000  Uiso   1.00
H175   H     0.00990   0.99785   0.67017   0.00000  Uiso   1.00
H176   H     0.16122   0.85994   0.61843   0.00000  Uiso   1.00
H177   H     0.16767   0.80640   0.57940   0.00000  Uiso   1.00
H178   H     0.05723   0.79469   0.57453   0.00000  Uiso   1.00
H179   H     0.05047   0.84874   0.61326   0.00000  Uiso   1.00
H180   H     0.13321   0.97617   0.64928   0.00000  Uiso   1.00
H181   H     0.19011   0.00116   0.66183   0.00000  Uiso   1.00
H182   H     0.22294   0.88924   0.69517   0.00000  Uiso   1.00
H183   H     0.16562   0.86453   0.68389   0.00000  Uiso   1.00
H184   H     0.25655   0.90732   0.74198   0.00000  Uiso   1.00
H185   H     0.29634   0.85525   0.75452   0.00000  Uiso   1.00
H186   H     0.37109   0.90600   0.68280   0.00000  Uiso   1.00
H187   H     0.33081   0.95696   0.66879   0.00000  Uiso   1.00
C283   C     0.89593   0.96812   0.88272   0.00000  Uiso   1.00
C284   C     0.90264   0.93216   0.87020   0.00000  Uiso   1.00
C285   C     0.91394   0.90217   0.89248   0.00000  Uiso   1.00
C286   C     0.91798   0.91070   0.92820   0.00000  Uiso   1.00
C287   C     0.91083   0.94656   0.94081   0.00000  Uiso   1.00
C288   C     0.89956   0.97655   0.91855   0.00000  Uiso   1.00
Si14   Si    0.92052   0.85322   0.87322   0.00000  Uiso   1.00
C289   C     0.81054   0.80973   0.83762   0.00000  Uiso   1.00
C290   C     0.84046   0.79593   0.82132   0.00000  Uiso   1.00
C291   C     0.87278   0.81022   0.82960   0.00000  Uiso   1.00
C292   C     0.87694   0.83909   0.85429   0.00000  Uiso   1.00
C293   C     0.84631   0.85386   0.86901   0.00000  Uiso   1.00
C294   C     0.81394   0.83960   0.86103   0.00000  Uiso   1.00
C295   C     0.92897   0.81665   0.90985   0.00000  Uiso   1.00
C296   C     0.95810   0.79305   0.91283   0.00000  Uiso   1.00
C297   C     0.96104   0.76594   0.93986   0.00000  Uiso   1.00
C298   C     0.93500   0.76156   0.96552   0.00000  Uiso   1.00
C299   C     0.90597   0.78511   0.96330   0.00000  Uiso   1.00
C300   C     0.90303   0.81172   0.93606   0.00000  Uiso   1.00
C301   C     0.96816   0.82284   0.82101   0.00000  Uiso   1.00
C302   C     0.99354   0.82507   0.79489   0.00000  Uiso   1.00
C303   C     0.00897   0.86000   0.78535   0.00000  Uiso   1.00
C304   C     0.99852   0.89234   0.80338   0.00000  Uiso   1.00
C305   C     0.97316   0.88991   0.82944   0.00000  Uiso   1.00
C306   C     0.95674   0.85521   0.83895   0.00000  Uiso   1.00
H188   H     0.88754   0.99017   0.86417   0.00000  Uiso   1.00
H189   H     0.89888   0.92708   0.84231   0.00000  Uiso   1.00
H190   H     0.92676   0.88869   0.94661   0.00000  Uiso   1.00
H191   H     0.91411   0.95147   0.96879   0.00000  Uiso   1.00
H192   H     0.83850   0.77286   0.80289   0.00000  Uiso   1.00
H193   H     0.89544   0.79814   0.81690   0.00000  Uiso   1.00
H194   H     0.84782   0.87689   0.88758   0.00000  Uiso   1.00
H195   H     0.79107   0.85173   0.87320   0.00000  Uiso   1.00
H196   H     0.97902   0.79583   0.89350   0.00000  Uiso   1.00
H197   H     0.98399   0.74826   0.94124   0.00000  Uiso   1.00
H198   H     0.88517   0.78188   0.98267   0.00000  Uiso   1.00
H199   H     0.87979   0.82907   0.93489   0.00000  Uiso   1.00
H200   H     0.95679   0.79513   0.82757   0.00000  Uiso   1.00
H201   H     0.00161   0.79931   0.78189   0.00000  Uiso   1.00
H202   H     0.00980   0.91992   0.79638   0.00000  Uiso   1.00
H203   H     0.96576   0.91585   0.84260   0.00000  Uiso   1.00
C307   C     0.71725   0.60139   0.75698   0.00000  Uiso   1.00
C308   C     0.74091   0.63083   0.76218   0.00000  Uiso   1.00
C309   C     0.73177   0.66194   0.78207   0.00000  Uiso   1.00
C310   C     0.69852   0.66559   0.79699   0.00000  Uiso   1.00
C311   C     0.67533   0.63512   0.79195   0.00000  Uiso   1.00
C312   C     0.68439   0.60373   0.77262   0.00000  Uiso   1.00
H204   H     0.76680   0.62921   0.75087   0.00000  Uiso   1.00
H205   H     0.75109   0.68400   0.78588   0.00000  Uiso   1.00
H206   H     0.64937   0.63621   0.80335   0.00000  Uiso   1.00
H207   H     0.66558   0.58115   0.76886   0.00000  Uiso   1.00
C313   C     0.62962   0.71258   0.76978   0.00000  Uiso   1.00
C314   C     0.63886   0.72203   0.80428   0.00000  Uiso   1.00
C315   C     0.61309   0.73959   0.82475   0.00000  Uiso   1.00
C316   C     0.57975   0.74482   0.81259   0.00000  Uiso   1.00
C317   C     0.57069   0.73329   0.77891   0.00000  Uiso   1.00
C318   C     0.59647   0.71819   0.75727   0.00000  Uiso   1.00
Si15   Si    0.68180   0.70681   0.82401   0.00000  Uiso   1.00
C319   C     0.71624   0.74550   0.82606   0.00000  Uiso   1.00
C320   C     0.72508   0.76227   0.85809   0.00000  Uiso   1.00
C321   C     0.75455   0.78446   0.86124   0.00000  Uiso   1.00
C322   C     0.77683   0.79101   0.83237   0.00000  Uiso   1.00
C323   C     0.76710   0.77718   0.79967   0.00000  Uiso   1.00
C324   C     0.73740   0.75527   0.79666   0.00000  Uiso   1.00
C325   C     0.64060   0.67435   0.88290   0.00000  Uiso   1.00
C326   C     0.63575   0.65893   0.91658   0.00000  Uiso   1.00
C327   C     0.66324   0.65484   0.94036   0.00000  Uiso   1.00
C328   C     0.69611   0.66632   0.92765   0.00000  Uiso   1.00
C329   C     0.70102   0.68124   0.89381   0.00000  Uiso   1.00
C330   C     0.67334   0.68663   0.87044   0.00000  Uiso   1.00
Si16   Si    0.65433   0.63793   0.98774   0.00000  Uiso   1.00
C331   C     0.63378   0.56383   0.96726   0.00000  Uiso   1.00
C332   C     0.61161   0.53369   0.96125   0.00000  Uiso   1.00
C333   C     0.57736   0.53422   0.97365   0.00000  Uiso   1.00
C334   C     0.56657   0.56546   0.99305   0.00000  Uiso   1.00
C335   C     0.58892   0.59561   0.99891   0.00000  Uiso   1.00
C336   C     0.62313   0.59608   0.98586   0.00000  Uiso   1.00
H208   H     0.64869   0.69975   0.75248   0.00000  Uiso   1.00
H209   H     0.61916   0.74880   0.85115   0.00000  Uiso   1.00
H210   H     0.56046   0.75782   0.82946   0.00000  Uiso   1.00
H211   H     0.59015   0.70940   0.73085   0.00000  Uiso   1.00
H212   H     0.70888   0.75722   0.88138   0.00000  Uiso   1.00
H213   H     0.76111   0.79551   0.88680   0.00000  Uiso   1.00
H214   H     0.78308   0.78334   0.77646   0.00000  Uiso   1.00
H215   H     0.73070   0.74501   0.77079   0.00000  Uiso   1.00
H216   H     0.61827   0.67701   0.86587   0.00000  Uiso   1.00
H217   H     0.60981   0.65001   0.92479   0.00000  Uiso   1.00
H218   H     0.71844   0.66365   0.94466   0.00000  Uiso   1.00
H219   H     0.72715   0.68914   0.88536   0.00000  Uiso   1.00
H220   H     0.66005   0.56259   0.95670   0.00000  Uiso   1.00
H221   H     0.62068   0.50995   0.94589   0.00000  Uiso   1.00
H222   H     0.54037   0.56626   0.00370   0.00000  Uiso   1.00
H223   H     0.57935   0.61959   0.01371   0.00000  Uiso   1.00
C337   C     0.32221   0.38433   0.19811   0.00000  Uiso   1.00
C338   C     0.29646   0.39840   0.22045   0.00000  Uiso   1.00
C339   C     0.27467   0.42725   0.20898   0.00000  Uiso   1.00
C340   C     0.27725   0.44354   0.17471   0.00000  Uiso   1.00
C341   C     0.30335   0.42892   0.15276   0.00000  Uiso   1.00
C342   C     0.32539   0.40028   0.16411   0.00000  Uiso   1.00
H224   H     0.29360   0.38681   0.24713   0.00000  Uiso   1.00
H225   H     0.25480   0.43718   0.22707   0.00000  Uiso   1.00
H226   H     0.30643   0.43989   0.12587   0.00000  Uiso   1.00
H227   H     0.34479   0.38950   0.14601   0.00000  Uiso   1.00
C343   C     0.28746   0.50404   0.09914   0.00000  Uiso   1.00
C344   C     0.25391   0.49354   0.11081   0.00000  Uiso   1.00
C345   C     0.22870   0.49079   0.08453   0.00000  Uiso   1.00
C346   C     0.23674   0.49583   0.04904   0.00000  Uiso   1.00
C347   C     0.27074   0.50353   0.03786   0.00000  Uiso   1.00
C348   C     0.29579   0.50864   0.06367   0.00000  Uiso   1.00
Si17   Si    0.24438   0.48009   0.15883   0.00000  Uiso   1.00
C349   C     0.24074   0.52399   0.18679   0.00000  Uiso   1.00
C350   C     0.21983   0.55357   0.17322   0.00000  Uiso   1.00
C351   C     0.20929   0.58359   0.19363   0.00000  Uiso   1.00
C352   C     0.21933   0.58562   0.22883   0.00000  Uiso   1.00
C353   C     0.24141   0.55759   0.24230   0.00000  Uiso   1.00
C354   C     0.25174   0.52746   0.22173   0.00000  Uiso   1.00
C355   C     0.19224   0.42539   0.14037   0.00000  Uiso   1.00
C356   C     0.15955   0.40904   0.13977   0.00000  Uiso   1.00
C357   C     0.13197   0.42289   0.16022   0.00000  Uiso   1.00
C358   C     0.13939   0.45443   0.18114   0.00000  Uiso   1.00
C359   C     0.17200   0.47096   0.18154   0.00000  Uiso   1.00
C360   C     0.19957   0.45713   0.16105   0.00000  Uiso   1.00
Si18   Si    0.08607   0.40287   0.16098   0.00000  Uiso   1.00
C361   C     0.01327   0.50220   0.11925   0.00000  Uiso   1.00
C362   C     0.03645   0.48420   0.09659   0.00000  Uiso   1.00
C363   C     0.05714   0.45478   0.10898   0.00000  Uiso   1.00
C364   C     0.05600   0.44198   0.14448   0.00000  Uiso   1.00
C365   C     0.03306   0.46119   0.16691   0.00000  Uiso   1.00
C366   C     0.01204   0.49032   0.15467   0.00000  Uiso   1.00
C367   C     0.07381   0.39015   0.20854   0.00000  Uiso   1.00
C368   C     0.09802   0.38903   0.23594   0.00000  Uiso   1.00
C369   C     0.08803   0.38497   0.27102   0.00000  Uiso   1.00
C370   C     0.05299   0.38243   0.28066   0.00000  Uiso   1.00
C371   C     0.02865   0.38123   0.25367   0.00000  Uiso   1.00
C372   C     0.03889   0.38463   0.21864   0.00000  Uiso   1.00
C373   C     0.06483   0.35462   0.10221   0.00000  Uiso   1.00
C374   C     0.06963   0.32427   0.07991   0.00000  Uiso   1.00
C375   C     0.09613   0.29819   0.08602   0.00000  Uiso   1.00
C376   C     0.11640   0.30193   0.11601   0.00000  Uiso   1.00
C377   C     0.11095   0.33175   0.13853   0.00000  Uiso   1.00
C378   C     0.08571   0.35978   0.13179   0.00000  Uiso   1.00
H228   H     0.30773   0.50816   0.11834   0.00000  Uiso   1.00
H229   H     0.20207   0.48402   0.09196   0.00000  Uiso   1.00
H230   H     0.21633   0.49338   0.02980   0.00000  Uiso   1.00
H231   H     0.32237   0.51508   0.05594   0.00000  Uiso   1.00
H232   H     0.21126   0.55270   0.14602   0.00000  Uiso   1.00
H233   H     0.19309   0.60572   0.18221   0.00000  Uiso   1.00
H234   H     0.24975   0.55872   0.26949   0.00000  Uiso   1.00
H235   H     0.26844   0.50585   0.23332   0.00000  Uiso   1.00
H236   H     0.21268   0.41332   0.12419   0.00000  Uiso   1.00
H237   H     0.15540   0.38491   0.12289   0.00000  Uiso   1.00
H238   H     0.11897   0.46643   0.19743   0.00000  Uiso   1.00
H239   H     0.17608   0.49535   0.19813   0.00000  Uiso   1.00
H240   H     0.03788   0.49292   0.06895   0.00000  Uiso   1.00
H241   H     0.07479   0.44136   0.09055   0.00000  Uiso   1.00
H242   H     0.03152   0.45323   0.19475   0.00000  Uiso   1.00
H243   H     0.99482   0.50447   0.17295   0.00000  Uiso   1.00
H244   H     0.12546   0.39195   0.22970   0.00000  Uiso   1.00
H245   H     0.10774   0.38426   0.29116   0.00000  Uiso   1.00
H246   H     0.00127   0.37882   0.26013   0.00000  Uiso   1.00
H247   H     0.01912   0.38373   0.19851   0.00000  Uiso   1.00
H248   H     0.04451   0.37498   0.09623   0.00000  Uiso   1.00
H249   H     0.05337   0.32146   0.05697   0.00000  Uiso   1.00
H250   H     0.13646   0.28119   0.12163   0.00000  Uiso   1.00
H251   H     0.12695   0.33369   0.16184   0.00000  Uiso   1.00
C379   C     0.26590   0.37375   0.84943   0.00000  Uiso   1.00
C380   C     0.26188   0.40703   0.82902   0.00000  Uiso   1.00
C381   C     0.27896   0.44036   0.83770   0.00000  Uiso   1.00
C382   C     0.30106   0.44192   0.86677   0.00000  Uiso   1.00
C383   C     0.30562   0.40760   0.88622   0.00000  Uiso   1.00
C384   C     0.28847   0.37444   0.87796   0.00000  Uiso   1.00
H252   H     0.24457   0.40713   0.80669   0.00000  Uiso   1.00
H253   H     0.27472   0.46592   0.82161   0.00000  Uiso   1.00
H254   H     0.32293   0.40695   0.90863   0.00000  Uiso   1.00
H255   H     0.29275   0.34864   0.89362   0.00000  Uiso   1.00
C385   C     0.27452   0.47606   0.94265   0.00000  Uiso   1.00
C386   C     0.30330   0.49647   0.92900   0.00000  Uiso   1.00
C387   C     0.31926   0.52187   0.95206   0.00000  Uiso   1.00
C388   C     0.30811   0.52559   0.98663   0.00000  Uiso   1.00
C389   C     0.28047   0.50361   0.00018   0.00000  Uiso   1.00
C390   C     0.26345   0.47935   0.97730   0.00000  Uiso   1.00
Si19   Si    0.32399   0.48524   0.88477   0.00000  Uiso   1.00
C391   C     0.32766   0.52788   0.85335   0.00000  Uiso   1.00
C392   C     0.34034   0.52359   0.81868   0.00000  Uiso   1.00
C393   C     0.35122   0.55451   0.79797   0.00000  Uiso   1.00
C394   C     0.34942   0.59145   0.81081   0.00000  Uiso   1.00
C395   C     0.33472   0.59658   0.84418   0.00000  Uiso   1.00
C396   C     0.32434   0.56547   0.86495   0.00000  Uiso   1.00
C397   C     0.37836   0.45205   0.92776   0.00000  Uiso   1.00
C398   C     0.41027   0.43549   0.93375   0.00000  Uiso   1.00
C399   C     0.43597   0.43409   0.90719   0.00000  Uiso   1.00
C400   C     0.42764   0.45102   0.87444   0.00000  Uiso   1.00
C401   C     0.39575   0.46762   0.86848   0.00000  Uiso   1.00
C402   C     0.36981   0.46840   0.89476   0.00000  Uiso   1.00
Si20   Si    0.47948   0.41082   0.91627   0.00000  Uiso   1.00
C403   C     0.55316   0.50356   0.96442   0.00000  Uiso   1.00
C404   C     0.56420   0.46588   0.96133   0.00000  Uiso   1.00
C405   C     0.54199   0.43811   0.94928   0.00000  Uiso   1.00
C406   C     0.50764   0.44636   0.93989   0.00000  Uiso   1.00
C407   C     0.49668   0.48409   0.94454   0.00000  Uiso   1.00
C408   C     0.51878   0.51202   0.95646   0.00000  Uiso   1.00
C409   C     0.50025   0.40261   0.87142   0.00000  Uiso   1.00
C410   C     0.50046   0.36800   0.85357   0.00000  Uiso   1.00
C411   C     0.51101   0.36595   0.81857   0.00000  Uiso   1.00
C412   C     0.52146   0.39873   0.79966   0.00000  Uiso   1.00
C413   C     0.52259   0.43325   0.81725   0.00000  Uiso   1.00
C414   C     0.51241   0.43500   0.85226   0.00000  Uiso   1.00
C415   C     0.48482   0.35565   0.97539   0.00000  Uiso   1.00
C416   C     0.47511   0.32293   0.99427   0.00000  Uiso   1.00
C417   C     0.45047   0.29790   0.98104   0.00000  Uiso   1.00
C418   C     0.43634   0.30641   0.94803   0.00000  Uiso   1.00
C419   C     0.44617   0.33910   0.92931   0.00000  Uiso   1.00
C420   C     0.47058   0.36500   0.94240   0.00000  Uiso   1.00
H256   H     0.26083   0.45642   0.92597   0.00000  Uiso   1.00
H257   H     0.34145   0.53868   0.94285   0.00000  Uiso   1.00
H258   H     0.32125   0.54557   0.00336   0.00000  Uiso   1.00
H259   H     0.24198   0.46180   0.98696   0.00000  Uiso   1.00
H260   H     0.34209   0.49528   0.80780   0.00000  Uiso   1.00
H261   H     0.36136   0.55000   0.77159   0.00000  Uiso   1.00
H262   H     0.33258   0.62507   0.85446   0.00000  Uiso   1.00
H263   H     0.31379   0.57055   0.89111   0.00000  Uiso   1.00
H264   H     0.35953   0.45221   0.94929   0.00000  Uiso   1.00
H265   H     0.41536   0.42305   0.95972   0.00000  Uiso   1.00
H266   H     0.44650   0.45104   0.85293   0.00000  Uiso   1.00
H267   H     0.39087   0.48016   0.84253   0.00000  Uiso   1.00
H268   H     0.59048   0.45824   0.96828   0.00000  Uiso   1.00
H269   H     0.55172   0.40930   0.94659   0.00000  Uiso   1.00
H270   H     0.47030   0.49199   0.93810   0.00000  Uiso   1.00
H271   H     0.50949   0.54102   0.95854   0.00000  Uiso   1.00
H272   H     0.49187   0.34201   0.86726   0.00000  Uiso   1.00
H273   H     0.51020   0.33879   0.80550   0.00000  Uiso   1.00
H274   H     0.53167   0.45887   0.80336   0.00000  Uiso   1.00
H275   H     0.51369   0.46234   0.86509   0.00000  Uiso   1.00
H276   H     0.50373   0.37462   0.98679   0.00000  Uiso   1.00
H277   H     0.48624   0.31719   0.01998   0.00000  Uiso   1.00
H278   H     0.41761   0.28714   0.93683   0.00000  Uiso   1.00
H279   H     0.43432   0.34497   0.90389   0.00000  Uiso   1.00
C421   C     0.37483   0.15892   0.32226   0.00000  Uiso   1.00
C422   C     0.37753   0.19811   0.32740   0.00000  Uiso   1.00
C423   C     0.38588   0.22276   0.29949   0.00000  Uiso   1.00
C424   C     0.39235   0.20966   0.26522   0.00000  Uiso   1.00
C425   C     0.38764   0.17039   0.26035   0.00000  Uiso   1.00
C426   C     0.37896   0.14560   0.28805   0.00000  Uiso   1.00
H280   H     0.37326   0.20935   0.35351   0.00000  Uiso   1.00
H281   H     0.38794   0.25304   0.30455   0.00000  Uiso   1.00
H282   H     0.39141   0.15873   0.23431   0.00000  Uiso   1.00
H283   H     0.37668   0.11531   0.28334   0.00000  Uiso   1.00
C427   C     0.46833   0.25765   0.27652   0.00000  Uiso   1.00
C428   C     0.45932   0.24901   0.24172   0.00000  Uiso   1.00
C429   C     0.48704   0.24112   0.21864   0.00000  Uiso   1.00
C430   C     0.52099   0.23960   0.22995   0.00000  Uiso   1.00
C431   C     0.52908   0.24640   0.26506   0.00000  Uiso   1.00
C432   C     0.50222   0.25662   0.28794   0.00000  Uiso   1.00
Si21   Si    0.41203   0.24217   0.22934   0.00000  Uiso   1.00
C433   C     0.38645   0.28809   0.22533   0.00000  Uiso   1.00
C434   C     0.39999   0.32047   0.20726   0.00000  Uiso   1.00
C435   C     0.37967   0.35181   0.19918   0.00000  Uiso   1.00
C436   C     0.34467   0.35242   0.20902   0.00000  Uiso   1.00
C437   C     0.33105   0.32115   0.22812   0.00000  Uiso   1.00
C438   C     0.35144   0.28977   0.23587   0.00000  Uiso   1.00
C439   C     0.42944   0.18473   0.17825   0.00000  Uiso   1.00
C440   C     0.42736   0.16622   0.14646   0.00000  Uiso   1.00
C441   C     0.40528   0.17895   0.11955   0.00000  Uiso   1.00
C442   C     0.38545   0.21152   0.12669   0.00000  Uiso   1.00
C443   C     0.38760   0.23006   0.15838   0.00000  Uiso   1.00
C444   C     0.40980   0.21743   0.18532   0.00000  Uiso   1.00
Si22   Si    0.40183   0.15870   0.07363   0.00000  Uiso   1.00
C445   C     0.43900   0.26389   0.00166   0.00000  Uiso   1.00
C446   C     0.46223   0.24253   0.02194   0.00000  Uiso   1.00
C447   C     0.45094   0.21111   0.04173   0.00000  Uiso   1.00
C448   C     0.41604   0.19922   0.04236   0.00000  Uiso   1.00
C449   C     0.39316   0.22110   0.02178   0.00000  Uiso   1.00
C450   C     0.40427   0.25253   0.00185   0.00000  Uiso   1.00
C451   C     0.35480   0.14587   0.06529   0.00000  Uiso   1.00
C452   C     0.32931   0.14335   0.09206   0.00000  Uiso   1.00
C453   C     0.29472   0.13715   0.08471   0.00000  Uiso   1.00
C454   C     0.28375   0.13335   0.04996   0.00000  Uiso   1.00
C455   C     0.30897   0.13390   0.02313   0.00000  Uiso   1.00
C456   C     0.34351   0.13981   0.03069   0.00000  Uiso   1.00
C457   C     0.45326   0.11159   0.03881   0.00000  Uiso   1.00
C458   C     0.47250   0.07874   0.03431   0.00000  Uiso   1.00
C459   C     0.46919   0.04841   0.05830   0.00000  Uiso   1.00
C460   C     0.44650   0.05110   0.08684   0.00000  Uiso   1.00
C461   C     0.42727   0.08394   0.09124   0.00000  Uiso   1.00
C462   C     0.43016   0.11529   0.06747   0.00000  Uiso   1.00
H284   H     0.44815   0.26476   0.29545   0.00000  Uiso   1.00
H285   H     0.48193   0.23546   0.19114   0.00000  Uiso   1.00
H286   H     0.54147   0.23287   0.21129   0.00000  Uiso   1.00
H287   H     0.50779   0.26243   0.31529   0.00000  Uiso   1.00
H288   H     0.42705   0.32091   0.19901   0.00000  Uiso   1.00
H289   H     0.39109   0.37616   0.18509   0.00000  Uiso   1.00
H290   H     0.30395   0.32090   0.23608   0.00000  Uiso   1.00
H291   H     0.33971   0.26566   0.25014   0.00000  Uiso   1.00
H292   H     0.44699   0.17355   0.19813   0.00000  Uiso   1.00
H293   H     0.44337   0.14128   0.14244   0.00000  Uiso   1.00
H294   H     0.36797   0.22270   0.10671   0.00000  Uiso   1.00
H295   H     0.37172   0.25512   0.16227   0.00000  Uiso   1.00
H296   H     0.48945   0.25040   0.02196   0.00000  Uiso   1.00
H297   H     0.46976   0.19537   0.05734   0.00000  Uiso   1.00
H298   H     0.36585   0.21352   0.02142   0.00000  Uiso   1.00
H299   H     0.38556   0.26893   0.98678   0.00000  Uiso   1.00
H300   H     0.33663   0.14688   0.11937   0.00000  Uiso   1.00
H301   H     0.27600   0.13552   0.10628   0.00000  Uiso   1.00
H302   H     0.30134   0.13092   0.99588   0.00000  Uiso   1.00
H303   H     0.36225   0.14041   0.00903   0.00000  Uiso   1.00
H304   H     0.45626   0.13488   0.01959   0.00000  Uiso   1.00
H305   H     0.49015   0.07679   0.01193   0.00000  Uiso   1.00
H306   H     0.44378   0.02747   0.10568   0.00000  Uiso   1.00
H307   H     0.40947   0.08533   0.11362   0.00000  Uiso   1.00
C463   C     0.86249   0.60430   0.30420   0.00000  Uiso   1.00
C464   C     0.84205   0.63691   0.30631   0.00000  Uiso   1.00
C465   C     0.85120   0.67025   0.28796   0.00000  Uiso   1.00
C466   C     0.88117   0.67282   0.26670   0.00000  Uiso   1.00
C467   C     0.90110   0.63936   0.26450   0.00000  Uiso   1.00
C468   C     0.89211   0.60606   0.28258   0.00000  Uiso   1.00
H308   H     0.81898   0.63649   0.32297   0.00000  Uiso   1.00
H309   H     0.83457   0.69493   0.29049   0.00000  Uiso   1.00
H310   H     0.92438   0.63942   0.24804   0.00000  Uiso   1.00
H311   H     0.90807   0.58097   0.27957   0.00000  Uiso   1.00
C469   C     0.95615   0.71216   0.28833   0.00000  Uiso   1.00
C470   C     0.94336   0.72730   0.25643   0.00000  Uiso   1.00
C471   C     0.96645   0.75018   0.23601   0.00000  Uiso   1.00
C472   C     0.00041   0.75611   0.24589   0.00000  Uiso   1.00
C473   C     0.01295   0.73958   0.27708   0.00000  Uiso   1.00
C474   C     0.99001   0.71815   0.29848   0.00000  Uiso   1.00
Si23   Si    0.89885   0.71472   0.23904   0.00000  Uiso   1.00
C475   C     0.87010   0.75837   0.23508   0.00000  Uiso   1.00
C476   C     0.86848   0.77786   0.20223   0.00000  Uiso   1.00
C477   C     0.84748   0.80921   0.19695   0.00000  Uiso   1.00
C478   C     0.82733   0.82324   0.22455   0.00000  Uiso   1.00
C479   C     0.82963   0.80547   0.25776   0.00000  Uiso   1.00
C480   C     0.85042   0.77371   0.26274   0.00000  Uiso   1.00
C481   C     0.93645   0.67942   0.18112   0.00000  Uiso   1.00
C482   C     0.93934   0.66204   0.14881   0.00000  Uiso   1.00
C483   C     0.91115   0.65937   0.12585   0.00000  Uiso   1.00
C484   C     0.87987   0.67542   0.13752   0.00000  Uiso   1.00
C485   C     0.87682   0.69212   0.17009   0.00000  Uiso   1.00
C486   C     0.90504   0.69493   0.19302   0.00000  Uiso   1.00
Si24   Si    0.91638   0.63656   0.08106   0.00000  Uiso   1.00
C487   C     0.93644   0.73239   0.99408   0.00000  Uiso   1.00
C488   C     0.94710   0.69519   0.98768   0.00000  Uiso   1.00
C489   C     0.94436   0.66705   0.01388   0.00000  Uiso   1.00
C490   C     0.93125   0.67468   0.04777   0.00000  Uiso   1.00
C491   C     0.92261   0.71285   0.05416   0.00000  Uiso   1.00
C492   C     0.92503   0.74101   0.02807   0.00000  Uiso   1.00
C493   C     0.87168   0.62142   0.06578   0.00000  Uiso   1.00
C494   C     0.84538   0.60899   0.08947   0.00000  Uiso   1.00
C495   C     0.81134   0.60476   0.07909   0.00000  Uiso   1.00
C496   C     0.80206   0.61213   0.04412   0.00000  Uiso   1.00
C497   C     0.82815   0.62187   0.01964   0.00000  Uiso   1.00
C498   C     0.86198   0.62663   0.03034   0.00000  Uiso   1.00
C499   C     0.98117   0.59280   0.07524   0.00000  Uiso   1.00
C500   C     0.00255   0.56268   0.08462   0.00000  Uiso   1.00
C501   C     0.99044   0.53321   0.10697   0.00000  Uiso   1.00
C502   C     0.95598   0.53409   0.11863   0.00000  Uiso   1.00
C503   C     0.93469   0.56396   0.10883   0.00000  Uiso   1.00
C504   C     0.94668   0.59464   0.08726   0.00000  Uiso   1.00
H312   H     0.93938   0.69469   0.30539   0.00000  Uiso   1.00
H313   H     0.95765   0.76324   0.21143   0.00000  Uiso   1.00
H314   H     0.01739   0.77370   0.22921   0.00000  Uiso   1.00
H315   H     0.99910   0.70494   0.32280   0.00000  Uiso   1.00
H316   H     0.88386   0.76809   0.18006   0.00000  Uiso   1.00
H317   H     0.84683   0.82323   0.17114   0.00000  Uiso   1.00
H318   H     0.81445   0.81606   0.27968   0.00000  Uiso   1.00
H319   H     0.85121   0.76038   0.28889   0.00000  Uiso   1.00
H320   H     0.95922   0.68089   0.19760   0.00000  Uiso   1.00
H321   H     0.96420   0.65016   0.14115   0.00000  Uiso   1.00
H322   H     0.85726   0.67468   0.12077   0.00000  Uiso   1.00
H323   H     0.85177   0.70334   0.17798   0.00000  Uiso   1.00
H324   H     0.95641   0.68790   0.96158   0.00000  Uiso   1.00
H325   H     0.95206   0.63821   0.00765   0.00000  Uiso   1.00
H326   H     0.91318   0.72063   0.08013   0.00000  Uiso   1.00
H327   H     0.91778   0.77000   0.03404   0.00000  Uiso   1.00
H328   H     0.85156   0.60317   0.11695   0.00000  Uiso   1.00
H329   H     0.79171   0.59594   0.09837   0.00000  Uiso   1.00
H330   H     0.82160   0.62736   0.99224   0.00000  Uiso   1.00
H331   H     0.88128   0.63545   0.01066   0.00000  Uiso   1.00
H332   H     0.99171   0.61564   0.05842   0.00000  Uiso   1.00
H333   H     0.02923   0.56257   0.07527   0.00000  Uiso   1.00
H334   H     0.94579   0.51102   0.13536   0.00000  Uiso   1.00
H335   H     0.90805   0.56375   0.11848   0.00000  Uiso   1.00
C505   C     0.36441   0.62400   0.79048   0.00000  Uiso   1.00
C506   C     0.34764   0.65906   0.78778   0.00000  Uiso   1.00
C507   C     0.36296   0.68957   0.76951   0.00000  Uiso   1.00
C508   C     0.39592   0.68683   0.75374   0.00000  Uiso   1.00
C509   C     0.41225   0.65108   0.75665   0.00000  Uiso   1.00
C510   C     0.39693   0.62037   0.77435   0.00000  Uiso   1.00
H336   H     0.32215   0.66237   0.79967   0.00000  Uiso   1.00
H337   H     0.34885   0.71622   0.76761   0.00000  Uiso   1.00
H338   H     0.43774   0.64732   0.74473   0.00000  Uiso   1.00
H339   H     0.41055   0.59344   0.77635   0.00000  Uiso   1.00
C511   C     0.47400   0.72037   0.77794   0.00000  Uiso   1.00
C512   C     0.46528   0.73017   0.74299   0.00000  Uiso   1.00
C513   C     0.49247   0.74364   0.72089   0.00000  Uiso   1.00
C514   C     0.52631   0.74553   0.73238   0.00000  Uiso   1.00
C515   C     0.53453   0.73458   0.76693   0.00000  Uiso   1.00
C516   C     0.50771   0.72266   0.78975   0.00000  Uiso   1.00
Si25   Si    0.41939   0.72510   0.72615   0.00000  Uiso   1.00
C517   C     0.39615   0.77263   0.72589   0.00000  Uiso   1.00
C518   C     0.39451   0.79492   0.69460   0.00000  Uiso   1.00
C519   C     0.37605   0.82854   0.69276   0.00000  Uiso   1.00
C520   C     0.35829   0.84186   0.72232   0.00000  Uiso   1.00
C521   C     0.36087   0.82109   0.75408   0.00000  Uiso   1.00
C522   C     0.37949   0.78746   0.75575   0.00000  Uiso   1.00
C523   C     0.44790   0.68513   0.66574   0.00000  Uiso   1.00
C524   C     0.44651   0.66918   0.63272   0.00000  Uiso   1.00
C525   C     0.41751   0.67350   0.61095   0.00000  Uiso   1.00
C526   C     0.38993   0.69490   0.62460   0.00000  Uiso   1.00
C527   C     0.39118   0.71048   0.65774   0.00000  Uiso   1.00
C528   C     0.42032   0.70643   0.67943   0.00000  Uiso   1.00
Si26   Si    0.41640   0.65206   0.56539   0.00000  Uiso   1.00
C529   C     0.43173   0.74504   0.47535   0.00000  Uiso   1.00
C530   C     0.44245   0.70780   0.46934   0.00000  Uiso   1.00
C531   C     0.44143   0.68051   0.49640   0.00000  Uiso   1.00
C532   C     0.43024   0.68917   0.53073   0.00000  Uiso   1.00
C533   C     0.42178   0.72749   0.53663   0.00000  Uiso   1.00
C534   C     0.42231   0.75476   0.50967   0.00000  Uiso   1.00
C535   C     0.36965   0.64064   0.55400   0.00000  Uiso   1.00
C536   C     0.34402   0.63106   0.57945   0.00000  Uiso   1.00
C537   C     0.30945   0.62737   0.57078   0.00000  Uiso   1.00
C538   C     0.29882   0.63275   0.53594   0.00000  Uiso   1.00
C539   C     0.32408   0.64034   0.50997   0.00000  Uiso   1.00
C540   C     0.35850   0.64427   0.51889   0.00000  Uiso   1.00
C541   C     0.47701   0.60301   0.55334   0.00000  Uiso   1.00
C542   C     0.49655   0.57075   0.56034   0.00000  Uiso   1.00
C543   C     0.48358   0.54126   0.58222   0.00000  Uiso   1.00
C544   C     0.44995   0.54456   0.59587   0.00000  Uiso   1.00
C545   C     0.43051   0.57669   0.58859   0.00000  Uiso   1.00
C546   C     0.44354   0.60728   0.56756   0.00000  Uiso   1.00
H340   H     0.45395   0.71019   0.79626   0.00000  Uiso   1.00
H341   H     0.48702   0.75247   0.69385   0.00000  Uiso   1.00
H342   H     0.54659   0.75572   0.71440   0.00000  Uiso   1.00
H343   H     0.51350   0.71401   0.81670   0.00000  Uiso   1.00
H344   H     0.40764   0.78546   0.67088   0.00000  Uiso   1.00
H345   H     0.37456   0.84407   0.66773   0.00000  Uiso   1.00
H346   H     0.34823   0.83134   0.77773   0.00000  Uiso   1.00
H347   H     0.38093   0.77218   0.78096   0.00000  Uiso   1.00
H348   H     0.47102   0.68080   0.68136   0.00000  Uiso   1.00
H349   H     0.46857   0.65283   0.62359   0.00000  Uiso   1.00
H350   H     0.36683   0.69928   0.60896   0.00000  Uiso   1.00
H351   H     0.36883   0.72622   0.66711   0.00000  Uiso   1.00
H352   H     0.45030   0.69978   0.44297   0.00000  Uiso   1.00
H353   H     0.44888   0.65151   0.49049   0.00000  Uiso   1.00
H354   H     0.41390   0.73604   0.56289   0.00000  Uiso   1.00
H355   H     0.41508   0.78388   0.51516   0.00000  Uiso   1.00
H356   H     0.35123   0.62693   0.60689   0.00000  Uiso   1.00
H357   H     0.29048   0.62037   0.59131   0.00000  Uiso   1.00
H358   H     0.31653   0.64459   0.48269   0.00000  Uiso   1.00
H359   H     0.37718   0.65107   0.49798   0.00000  Uiso   1.00
H360   H     0.48824   0.62559   0.53669   0.00000  Uiso   1.00
H361   H     0.52225   0.56854   0.54869   0.00000  Uiso   1.00
H362   H     0.43926   0.52224   0.61313   0.00000  Uiso   1.00
H363   H     0.40460   0.57843   0.60001   0.00000  Uiso   1.00
C547   C     0.53067   0.39807   0.76184   0.00000  Uiso   1.00
C548   C     0.55152   0.36964   0.74781   0.00000  Uiso   1.00
C549   C     0.56120   0.37106   0.71250   0.00000  Uiso   1.00
C550   C     0.55013   0.40039   0.68935   0.00000  Uiso   1.00
C551   C     0.52823   0.42800   0.70385   0.00000  Uiso   1.00
C552   C     0.51880   0.42702   0.73919   0.00000  Uiso   1.00
H364   H     0.56102   0.34685   0.76492   0.00000  Uiso   1.00
H365   H     0.57820   0.34900   0.70267   0.00000  Uiso   1.00
H366   H     0.51851   0.45103   0.68713   0.00000  Uiso   1.00
H367   H     0.50189   0.44889   0.74936   0.00000  Uiso   1.00
C553   C     0.51000   0.44278   0.61271   0.00000  Uiso   1.00
C554   C     0.54545   0.44730   0.61994   0.00000  Uiso   1.00
C555   C     0.56012   0.48310   0.61136   0.00000  Uiso   1.00
C556   C     0.54047   0.51298   0.59819   0.00000  Uiso   1.00
C557   C     0.50500   0.50840   0.59269   0.00000  Uiso   1.00
C558   C     0.49024   0.47243   0.59938   0.00000  Uiso   1.00
Si27   Si    0.56947   0.40716   0.64335   0.00000  Uiso   1.00
C559   C     0.56974   0.36299   0.61562   0.00000  Uiso   1.00
C560   C     0.58702   0.36629   0.58269   0.00000  Uiso   1.00
C561   C     0.59353   0.33495   0.56231   0.00000  Uiso   1.00
C562   C     0.58244   0.29870   0.57372   0.00000  Uiso   1.00
C563   C     0.56351   0.29508   0.60524   0.00000  Uiso   1.00
C564   C     0.55755   0.32657   0.62582   0.00000  Uiso   1.00
C565   C     0.62408   0.45590   0.66693   0.00000  Uiso   1.00
C566   C     0.65776   0.46885   0.67049   0.00000  Uiso   1.00
C567   C     0.68615   0.44837   0.65749   0.00000  Uiso   1.00
C568   C     0.67852   0.41370   0.64129   0.00000  Uiso   1.00
C569   C     0.64485   0.40102   0.63730   0.00000  Uiso   1.00
C570   C     0.61640   0.42198   0.64950   0.00000  Uiso   1.00
Si28   Si    0.73305   0.46522   0.65822   0.00000  Uiso   1.00
C571   C     0.76944   0.48147   0.53948   0.00000  Uiso   1.00
C572   C     0.79182   0.49080   0.56667   0.00000  Uiso   1.00
C573   C     0.78063   0.48881   0.60154   0.00000  Uiso   1.00
C574   C     0.74659   0.47780   0.61102   0.00000  Uiso   1.00
C575   C     0.72399   0.47094   0.58301   0.00000  Uiso   1.00
C576   C     0.73505   0.47255   0.54815   0.00000  Uiso   1.00
C577   C     0.75866   0.42157   0.67286   0.00000  Uiso   1.00
C578   C     0.74863   0.40077   0.70359   0.00000  Uiso   1.00
C579   C     0.76218   0.36530   0.71184   0.00000  Uiso   1.00
C580   C     0.78665   0.34870   0.68960   0.00000  Uiso   1.00
C581   C     0.79810   0.36957   0.65981   0.00000  Uiso   1.00
C582   C     0.78437   0.40503   0.65170   0.00000  Uiso   1.00
C583   C     0.74611   0.54356   0.67964   0.00000  Uiso   1.00
C584   C     0.74169   0.57397   0.70187   0.00000  Uiso   1.00
C585   C     0.72558   0.56870   0.73480   0.00000  Uiso   1.00
C586   C     0.71570   0.53184   0.74563   0.00000  Uiso   1.00
C587   C     0.72057   0.50157   0.72348   0.00000  Uiso   1.00
C588   C     0.73513   0.50651   0.68940   0.00000  Uiso   1.00
H368   H     0.49754   0.41534   0.61807   0.00000  Uiso   1.00
H369   H     0.58754   0.48801   0.61555   0.00000  Uiso   1.00
H370   H     0.55267   0.54052   0.59314   0.00000  Uiso   1.00
H371   H     0.46301   0.46764   0.59419   0.00000  Uiso   1.00
H372   H     0.59601   0.39415   0.57314   0.00000  Uiso   1.00
H373   H     0.60738   0.33845   0.53735   0.00000  Uiso   1.00
H374   H     0.55442   0.26716   0.61428   0.00000  Uiso   1.00
H375   H     0.54348   0.32260   0.65064   0.00000  Uiso   1.00
H376   H     0.60310   0.47267   0.67786   0.00000  Uiso   1.00
H377   H     0.66208   0.49560   0.68364   0.00000  Uiso   1.00
H378   H     0.69957   0.39633   0.63135   0.00000  Uiso   1.00
H379   H     0.64059   0.37422   0.62424   0.00000  Uiso   1.00
H380   H     0.81857   0.49827   0.56054   0.00000  Uiso   1.00
H381   H     0.79901   0.49536   0.62204   0.00000  Uiso   1.00
H382   H     0.69712   0.46347   0.58860   0.00000  Uiso   1.00
H383   H     0.71684   0.46655   0.52741   0.00000  Uiso   1.00
H384   H     0.72915   0.41237   0.72121   0.00000  Uiso   1.00
H385   H     0.75351   0.35018   0.73569   0.00000  Uiso   1.00
H386   H     0.81706   0.35736   0.64206   0.00000  Uiso   1.00
H387   H     0.79345   0.41987   0.62784   0.00000  Uiso   1.00
H388   H     0.75786   0.54887   0.65378   0.00000  Uiso   1.00
H389   H     0.74972   0.60237   0.69310   0.00000  Uiso   1.00
H390   H     0.70400   0.52698   0.77153   0.00000  Uiso   1.00
H391   H     0.71226   0.47335   0.73264   0.00000  Uiso   1.00
C589   C     0.20605   0.61636   0.25095   0.00000  Uiso   1.00
C590   C     0.22703   0.63439   0.27531   0.00000  Uiso   1.00
C591   C     0.21416   0.66390   0.29507   0.00000  Uiso   1.00
C592   C     0.17988   0.67700   0.29169   0.00000  Uiso   1.00
C593   C     0.15894   0.65748   0.26800   0.00000  Uiso   1.00
C594   C     0.17167   0.62807   0.24797   0.00000  Uiso   1.00
H392   H     0.25380   0.62576   0.27828   0.00000  Uiso   1.00
H393   H     0.23133   0.67744   0.31359   0.00000  Uiso   1.00
H394   H     0.13199   0.66546   0.26498   0.00000  Uiso   1.00
H395   H     0.15457   0.61372   0.23001   0.00000  Uiso   1.00
C595   C     0.11019   0.73555   0.27066   0.00000  Uiso   1.00
C596   C     0.12026   0.73423   0.30623   0.00000  Uiso   1.00
C597   C     0.09387   0.74041   0.33137   0.00000  Uiso   1.00
C598   C     0.05951   0.74407   0.32199   0.00000  Uiso   1.00
C599   C     0.04973   0.74192   0.28673   0.00000  Uiso   1.00
C600   C     0.07585   0.73920   0.26107   0.00000  Uiso   1.00
Si29   Si    0.16528   0.71838   0.31976   0.00000  Uiso   1.00
C601   C     0.20084   0.75600   0.31622   0.00000  Uiso   1.00
C602   C     0.20615   0.78242   0.34302   0.00000  Uiso   1.00
C603   C     0.23601   0.80432   0.34440   0.00000  Uiso   1.00
C604   C     0.26213   0.80095   0.31883   0.00000  Uiso   1.00
C605   C     0.25607   0.77728   0.29042   0.00000  Uiso   1.00
C606   C     0.22616   0.75551   0.28921   0.00000  Uiso   1.00
C607   C     0.13376   0.67655   0.37793   0.00000  Uiso   1.00
C608   C     0.12994   0.66247   0.41219   0.00000  Uiso   1.00
C609   C     0.15456   0.66984   0.43819   0.00000  Uiso   1.00
C610   C     0.18378   0.69128   0.42709   0.00000  Uiso   1.00
C611   C     0.18743   0.70564   0.39289   0.00000  Uiso   1.00
C612   C     0.16220   0.69951   0.36723   0.00000  Uiso   1.00
Si30   Si    0.14809   0.65472   0.48643   0.00000  Uiso   1.00
C613   C     0.11798   0.76301   0.55182   0.00000  Uiso   1.00
C614   C     0.09887   0.72943   0.55717   0.00000  Uiso   1.00
C615   C     0.10591   0.69751   0.53749   0.00000  Uiso   1.00
C616   C     0.13197   0.69769   0.51130   0.00000  Uiso   1.00
C617   C     0.14997   0.73234   0.50547   0.00000  Uiso   1.00
C618   C     0.14337   0.76413   0.52523   0.00000  Uiso   1.00
C619   C     0.19249   0.64274   0.50448   0.00000  Uiso   1.00
C620   C     0.21695   0.62324   0.48391   0.00000  Uiso   1.00
C621   C     0.25086   0.61859   0.49447   0.00000  Uiso   1.00
C622   C     0.26198   0.63320   0.52640   0.00000  Uiso   1.00
C623   C     0.23771   0.65095   0.54804   0.00000  Uiso   1.00
C624   C     0.20385   0.65563   0.53722   0.00000  Uiso   1.00
C625   C     0.13096   0.57474   0.49128   0.00000  Uiso   1.00
C626   C     0.11028   0.54298   0.48653   0.00000  Uiso   1.00
C627   C     0.07531   0.54693   0.47824   0.00000  Uiso   1.00
C628   C     0.06147   0.58365   0.47636   0.00000  Uiso   1.00
C629   C     0.08226   0.61530   0.48126   0.00000  Uiso   1.00
C630   C     0.11787   0.61200   0.48819   0.00000  Uiso   1.00
H396   H     0.12966   0.73288   0.24993   0.00000  Uiso   1.00
H397   H     0.10027   0.74161   0.35914   0.00000  Uiso   1.00
H398   H     0.03998   0.74814   0.34236   0.00000  Uiso   1.00
H399   H     0.06911   0.73834   0.23340   0.00000  Uiso   1.00
H400   H     0.18675   0.78525   0.36380   0.00000  Uiso   1.00
H401   H     0.23973   0.82308   0.36640   0.00000  Uiso   1.00
H402   H     0.27519   0.77548   0.26931   0.00000  Uiso   1.00
H403   H     0.22276   0.73691   0.26701   0.00000  Uiso   1.00
H404   H     0.11394   0.66971   0.35893   0.00000  Uiso   1.00
H405   H     0.10716   0.64536   0.41893   0.00000  Uiso   1.00
H406   H     0.20423   0.69695   0.44572   0.00000  Uiso   1.00
H407   H     0.21051   0.72221   0.38606   0.00000  Uiso   1.00
H408   H     0.07897   0.72792   0.57764   0.00000  Uiso   1.00
H409   H     0.09100   0.67164   0.54293   0.00000  Uiso   1.00
H410   H     0.17000   0.73437   0.48510   0.00000  Uiso   1.00
H411   H     0.15795   0.79021   0.51993   0.00000  Uiso   1.00
H412   H     0.20934   0.61209   0.45863   0.00000  Uiso   1.00
H413   H     0.26898   0.60369   0.47768   0.00000  Uiso   1.00
H414   H     0.24571   0.66243   0.57299   0.00000  Uiso   1.00
H415   H     0.18592   0.67039   0.55439   0.00000  Uiso   1.00
H416   H     0.15817   0.57050   0.49711   0.00000  Uiso   1.00
H417   H     0.12167   0.51480   0.48822   0.00000  Uiso   1.00
H418   H     0.03416   0.58747   0.47098   0.00000  Uiso   1.00
H419   H     0.07062   0.64340   0.47934   0.00000  Uiso   1.00
C631   C     0.70991   0.10218   0.26825   0.00000  Uiso   1.00
C632   C     0.72763   0.13675   0.26336   0.00000  Uiso   1.00
C633   C     0.71809   0.16858   0.28211   0.00000  Uiso   1.00
C634   C     0.69058   0.16751   0.30671   0.00000  Uiso   1.00
C635   C     0.67364   0.13210   0.31185   0.00000  Uiso   1.00
C636   C     0.68298   0.10029   0.29324   0.00000  Uiso   1.00
H420   H     0.74860   0.13904   0.24408   0.00000  Uiso   1.00
H421   H     0.73226   0.19507   0.27727   0.00000  Uiso   1.00
H422   H     0.65242   0.12946   0.33090   0.00000  Uiso   1.00
H423   H     0.66935   0.07356   0.29832   0.00000  Uiso   1.00
C637   C     0.61533   0.20084   0.28221   0.00000  Uiso   1.00
C638   C     0.63055   0.22430   0.30737   0.00000  Uiso   1.00
C639   C     0.61174   0.25700   0.31643   0.00000  Uiso   1.00
C640   C     0.57944   0.26484   0.30257   0.00000  Uiso   1.00
C641   C     0.56445   0.24054   0.27833   0.00000  Uiso   1.00
C642   C     0.58329   0.20876   0.26789   0.00000  Uiso   1.00
Si31   Si    0.67194   0.20979   0.33082   0.00000  Uiso   1.00
C643   C     0.70260   0.25195   0.33502   0.00000  Uiso   1.00
C644   C     0.72034   0.25685   0.36683   0.00000  Uiso   1.00
C645   C     0.74156   0.28799   0.37213   0.00000  Uiso   1.00
C646   C     0.74641   0.31612   0.34574   0.00000  Uiso   1.00
C647   C     0.72930   0.31166   0.31381   0.00000  Uiso   1.00
C648   C     0.70799   0.28040   0.30870   0.00000  Uiso   1.00
C649   C     0.63445   0.20975   0.39774   0.00000  Uiso   1.00
C650   C     0.62767   0.19886   0.43248   0.00000  Uiso   1.00
C651   C     0.64657   0.16994   0.44982   0.00000  Uiso   1.00
C652   C     0.67273   0.15263   0.42979   0.00000  Uiso   1.00
C653   C     0.67973   0.16381   0.39511   0.00000  Uiso   1.00
C654   C     0.66081   0.19271   0.37778   0.00000  Uiso   1.00
Si32   Si    0.63308   0.15490   0.49655   0.00000  Uiso   1.00
C655   C     0.59235   0.26489   0.55370   0.00000  Uiso   1.00
C656   C     0.56874   0.23599   0.54652   0.00000  Uiso   1.00
C657   C     0.57931   0.20387   0.52882   0.00000  Uiso   1.00
C658   C     0.61390   0.19863   0.51825   0.00000  Uiso   1.00
C659   C     0.63712   0.22850   0.52536   0.00000  Uiso   1.00
C660   C     0.62668   0.26098   0.54233   0.00000  Uiso   1.00
C661   C     0.67101   0.14256   0.52609   0.00000  Uiso   1.00
C662   C     0.66435   0.13012   0.56114   0.00000  Uiso   1.00
C663   C     0.68973   0.13012   0.58660   0.00000  Uiso   1.00
C664   C     0.72338   0.14253   0.57825   0.00000  Uiso   1.00
C665   C     0.73101   0.15267   0.54310   0.00000  Uiso   1.00
C666   C     0.70543   0.15290   0.51782   0.00000  Uiso   1.00
C667   C     0.57251   0.11014   0.51857   0.00000  Uiso   1.00
C668   C     0.54242   0.09024   0.51158   0.00000  Uiso   1.00
C669   C     0.53677   0.07539   0.47822   0.00000  Uiso   1.00
C670   C     0.56367   0.07844   0.45325   0.00000  Uiso   1.00
C671   C     0.59336   0.09900   0.46016   0.00000  Uiso   1.00
C672   C     0.59827   0.11697   0.49254   0.00000  Uiso   1.00
H424   H     0.62875   0.17545   0.27376   0.00000  Uiso   1.00
H425   H     0.62260   0.27677   0.33502   0.00000  Uiso   1.00
H426   H     0.56575   0.29022   0.31053   0.00000  Uiso   1.00
H427   H     0.57228   0.18941   0.24909   0.00000  Uiso   1.00
H428   H     0.71721   0.23588   0.38820   0.00000  Uiso   1.00
H429   H     0.75395   0.29089   0.39745   0.00000  Uiso   1.00
H430   H     0.73286   0.33272   0.29262   0.00000  Uiso   1.00
H431   H     0.69502   0.27809   0.28355   0.00000  Uiso   1.00
H432   H     0.61880   0.23212   0.38579   0.00000  Uiso   1.00
H433   H     0.60703   0.21321   0.44661   0.00000  Uiso   1.00
H434   H     0.68796   0.12980   0.44156   0.00000  Uiso   1.00
H435   H     0.70046   0.14958   0.38102   0.00000  Uiso   1.00
H436   H     0.54182   0.23882   0.55455   0.00000  Uiso   1.00
H437   H     0.56003   0.18228   0.52324   0.00000  Uiso   1.00
H438   H     0.66420   0.22605   0.51753   0.00000  Uiso   1.00
H439   H     0.64544   0.28315   0.54773   0.00000  Uiso   1.00
H440   H     0.63830   0.12111   0.56888   0.00000  Uiso   1.00
H441   H     0.68300   0.12173   0.61357   0.00000  Uiso   1.00
H442   H     0.75720   0.16095   0.53544   0.00000  Uiso   1.00
H443   H     0.71237   0.16202   0.49107   0.00000  Uiso   1.00
H444   H     0.57567   0.12150   0.54474   0.00000  Uiso   1.00
H445   H     0.52249   0.08762   0.53193   0.00000  Uiso   1.00
H446   H     0.56113   0.06531   0.42779   0.00000  Uiso   1.00
H447   H     0.61301   0.10189   0.43950   0.00000  Uiso   1.00
loop_
_geom_bond_atom_site_label_1
_geom_bond_atom_site_label_2
_geom_bond_distance
_geom_bond_site_symmetry_2
_ccdc_geom_bond_type
H1     C219    1.085   1_565 S
H2     C51     1.086   .     S
H3     C56     1.085   .     S
C1     C2      1.382   .     A
C1     H6      1.087   .     S
C1     C32     1.407   .     A
C2     H7      1.085   .     S
C2     C31     1.397   .     A
C3     C4      1.382   .     A
C3     H4      1.085   .     S
C3     C203    1.398   .     A
C4     H5      1.088   .     S
C4     C204    1.408   .     A
H8     C187    1.087   .     S
C5     C6      1.393   .     A
C5     C10     1.396   .     A
C5     C375    1.475   .     S
C6     C7      1.387   .     A
C6     H9      1.085   .     S
C7     C8      1.404   .     A
C7     H10     1.086   .     S
C8     C9      1.409   .     A
C8     Si8     1.903   1_554 S
C9     C10     1.382   .     A
C9     H11     1.087   .     S
C10    H12     1.085   .     S
C11    C12     1.410   1_554 A
C11    C16     1.407   .     A
C11    Si8     1.902   1_554 S
C12    C11     1.410   1_556 A
C12    C13     1.384   1_556 A
C12    H13     1.087   .     S
C13    C12     1.384   1_554 A
C13    C14     1.399   .     A
C13    H14     1.085   1_554 S
C14    C15     1.397   .     A
C14    C454    1.473   .     S
C15    C16     1.383   .     A
C15    H15     1.084   .     S
C16    H16     1.086   .     S
H14    C13     1.085   1_556 S
Si1    C20     1.899   1_655 S
Si1    C23     1.895   1_655 S
Si1    C32     1.895   .     S
Si1    C83     1.898   .     S
C17    C18     1.396   .     A
C17    C22     1.398   .     A
C17    C627    1.473   .     S
C18    C19     1.386   .     A
C18    H17     1.085   .     S
C19    C20     1.404   .     A
C19    H18     1.086   .     S
C20    Si1     1.899   1_455 S
C20    C21     1.408   .     A
C21    C22     1.382   .     A
C21    H19     1.087   1_455 S
C22    H20     1.085   .     S
C23    Si1     1.895   1_455 S
C23    C24     1.376   1_455 A
C23    C28     1.414   .     A
C24    C23     1.376   1_655 A
C24    C25     1.362   1_655 A
C25    C24     1.362   1_455 A
C25    C26     1.409   .     A
C25    H21     1.083   1_455 S
C26    C27     1.400   .     A
C26    C370    1.471   .     S
C27    C28     1.382   .     A
C27    H22     1.084   .     S
C28    H23     1.086   .     S
C29    C30     1.385   .     A
C29    C32     1.406   1_455 A
C29    H24     1.087   .     S
C30    C31     1.397   1_455 A
C30    H25     1.085   .     S
C31    C30     1.397   1_655 A
C31    C203    1.473   .     S
C32    C29     1.406   1_655 A
H19    C21     1.087   1_655 S
H21    C25     1.083   1_655 S
C33    C34     1.397   .     A
C33    C38     1.399   .     A
C33    C669    1.472   .     S
C34    C35     1.386   .     A
C34    H26     1.085   .     S
C35    C36     1.404   .     A
C35    H27     1.086   .     S
C36    C37     1.408   .     A
C36    Si2     1.904   .     S
C37    C38     1.380   .     A
C37    H28     1.087   .     S
C38    H29     1.084   .     S
C39    C40     1.408   .     A
C39    C44     1.382   .     A
C39    H30     1.086   .     S
C40    C41     1.407   .     A
C40    Si2     1.901   .     S
C41    C42     1.385   .     A
C41    H31     1.086   .     S
C42    C43     1.396   .     A
C42    H32     1.085   .     S
C43    C44     1.397   .     A
C43    C421    1.472   .     S
C44    H33     1.085   .     S
Si2    C45     1.896   .     S
Si2    C92     1.900   1_545 S
C45    C46     1.405   1_545 A
C45    C50     1.408   .     A
C46    C45     1.405   1_565 A
C46    C47     1.384   .     A
C46    H34     1.086   .     S
C47    C48     1.397   1_565 A
C47    H35     1.085   .     S
C48    C47     1.397   1_545 A
C48    C49     1.398   .     A
C48    C183    1.472   .     S
C49    C50     1.383   .     A
C49    H36     1.085   .     S
C50    H37     1.087   .     S
C51    C52     1.406   .     A
C51    C56     1.383   .     A
C52    C53     1.408   1_565 A
C52    Si3     1.903   .     S
C53    C52     1.408   1_545 A
C53    C54     1.385   .     A
C53    H38     1.087   .     S
C54    C55     1.397   1_545 A
C54    H39     1.085   .     S
C55    C54     1.397   1_565 A
C55    C56     1.397   .     A
C55    C220    1.473   1_565 S
Si3    C57     1.898   1_565 S
Si3    C114    1.901   .     S
Si3    C122    1.904   .     S
C57    Si3     1.898   1_545 S
C57    C58     1.407   .     A
C57    C62     1.408   .     A
C58    C59     1.383   .     A
C58    H40     1.086   1_545 S
C59    C60     1.397   .     A
C59    H41     1.085   .     S
C60    C61     1.397   .     A
C60    C631    1.474   .     S
C61    C62     1.386   .     A
C61    H42     1.085   .     S
C62    H43     1.087   .     S
H40    C58     1.086   1_565 S
C63    C64     1.398   .     A
C63    C68     1.398   .     A
C63    C646    1.475   .     S
C64    C65     1.387   .     A
C64    H44     1.085   .     S
C65    C66     1.405   .     A
C65    H45     1.087   .     S
C66    C67     1.409   .     A
C66    Si4     1.902   .     S
C67    C68     1.382   .     A
C67    H46     1.086   .     S
C68    H47     1.085   .     S
C69    C70     1.406   .     A
C69    C74     1.383   .     A
C69    H48     1.086   .     S
C70    C71     1.408   .     A
C70    Si4     1.901   .     S
C71    C72     1.385   .     A
C71    H49     1.087   .     S
C72    C73     1.396   .     A
C72    H50     1.085   .     S
C73    C74     1.397   .     A
C73    C571    1.473   .     S
C74    H51     1.085   .     S
Si4    C75     1.902   .     S
Si4    C86     1.905   .     S
C75    C76     1.407   .     A
C75    C80     1.407   .     A
C76    C77     1.382   .     A
C76    H52     1.085   .     S
C77    C78     1.397   .     A
C77    H53     1.085   .     S
C78    C79     1.398   .     A
C78    C463    1.474   .     S
C79    C80     1.386   .     A
C79    H54     1.085   .     S
C80    H55     1.087   .     S
C81    C82     1.384   .     A
C81    C86     1.405   .     A
C81    H56     1.087   .     S
C82    C83     1.406   .     A
C82    H57     1.087   .     S
C83    C84     1.403   .     A
C84    C85     1.383   .     A
C84    H58     1.093   .     S
C85    C86     1.408   .     A
C85    H59     1.087   .     S
C87    C88     1.385   .     A
C87    C92     1.404   .     A
C87    H60     1.086   1_565 S
C88    C89     1.407   .     A
C88    H61     1.087   .     S
C89    C90     1.405   .     A
C89    Si5     1.899   .     S
C90    C91     1.383   .     A
C90    H62     1.086   .     S
C91    C92     1.408   .     A
C91    H63     1.088   .     S
C92    Si2     1.900   1_565 S
Si5    C96     1.905   .     S
Si5    C99     1.900   .     S
Si5    C110    1.899   .     S
C93    C94     1.398   .     A
C93    C98     1.396   .     A
C93    C604    1.473   .     S
C94    C95     1.382   .     A
C94    H64     1.085   .     S
C95    C96     1.407   .     A
C95    H65     1.087   .     S
C96    C97     1.406   .     A
C97    C98     1.385   .     A
C97    H66     1.086   .     S
C98    H67     1.085   .     S
C99    C100    1.404   .     A
C99    C104    1.409   .     A
C100   C101    1.387   .     A
C100   H68     1.086   .     S
C101   C102    1.394   .     A
C101   H69     1.085   .     S
C102   C103    1.398   .     A
C102   C529    1.474   .     S
C103   C104    1.381   .     A
C103   H70     1.085   .     S
C104   H71     1.088   .     S
C105   C106    1.384   .     A
C105   C110    1.408   .     A
C105   H72     1.086   .     S
C106   C107    1.397   .     A
C106   H73     1.085   .     S
C107   C108    1.396   .     A
C107   C132    1.473   .     S
C108   C109    1.384   .     A
C108   H74     1.085   .     S
C109   C110    1.406   .     A
C109   H75     1.086   .     S
H60    C87     1.086   1_545 S
C111   C112    1.395   .     A
C111   C116    1.397   .     A
C111   C478    1.476   .     S
C112   C113    1.388   .     A
C112   H76     1.085   .     S
C113   C114    1.403   .     A
C113   H77     1.086   .     S
C114   C115    1.410   .     A
C115   C116    1.381   .     A
C115   H78     1.087   .     S
C116   H79     1.085   .     S
C117   C118    1.385   .     A
C117   C122    1.404   .     A
C117   H80     1.087   .     S
C118   C119    1.406   .     A
C118   H81     1.087   .     S
C119   C120    1.406   .     A
C119   Si6     1.901   .     S
C120   C121    1.384   .     A
C120   H82     1.087   .     S
C121   C122    1.408   .     A
C121   H83     1.088   .     S
Si6    C126    1.904   .     S
Si6    C129    1.899   .     S
Si6    C140    1.899   .     S
C123   C124    1.275   .     A
C123   C128    1.368   .     A
C124   C125    1.358   .     A
C125   C126    1.427   .     A
C125   H85     1.082   .     S
C126   C127    1.410   .     A
C127   C128    1.406   .     A
C127   H86     1.086   .     S
C128   H87     1.082   1_565 S
C129   C130    1.407   .     A
C129   C134    1.407   .     A
C130   C131    1.385   .     A
C130   H88     1.087   .     S
C131   C132    1.397   .     A
C131   H89     1.085   .     S
C132   C133    1.397   .     A
C133   C134    1.383   .     A
C133   H90     1.085   .     S
C134   H91     1.086   .     S
C135   C136    1.386   .     A
C135   C140    1.406   .     A
C135   H92     1.086   .     S
C136   C137    1.396   .     A
C136   H93     1.085   .     S
C137   C138    1.397   .     A
C137   C141    1.474   .     S
C138   C139    1.382   .     A
C138   H94     1.085   .     S
C139   C140    1.408   .     A
C139   H95     1.087   .     S
H84    C459    1.089   .     S
H87    C128    1.082   1_545 S
C141   C142    1.397   .     A
C141   C146    1.396   .     A
C142   C143    1.386   .     A
C142   H96     1.085   .     S
C143   C144    1.407   .     A
C143   H97     1.087   .     S
C144   C145    1.407   1_554 A
C144   Si16    1.900   1_554 S
C145   C144    1.407   1_556 A
C145   C146    1.383   1_556 A
C145   H98     1.086   .     S
C146   C145    1.383   1_554 A
C146   H99     1.085   .     S
C147   C148    1.408   1_554 A
C147   C152    1.406   .     A
C147   Si16    1.900   1_554 S
C148   C147    1.408   1_556 A
C148   C149    1.383   1_556 A
C148   H100    1.086   .     S
C149   C148    1.383   1_554 A
C149   C150    1.396   .     A
C149   H101    1.085   1_554 S
C150   C151    1.396   .     A
C150   C496    1.473   .     S
C151   C152    1.384   .     A
C151   H102    1.085   .     S
C152   H103    1.086   .     S
H101   C149    1.085   1_556 S
C153   C154    1.397   .     A
C153   C158    1.396   .     A
C153   C191    1.473   .     S
C154   C155    1.385   .     A
C154   H104    1.085   .     S
C155   C156    1.407   .     A
C155   H105    1.087   .     S
C156   C157    1.408   .     A
C156   Si7     1.906   .     S
C157   C158    1.383   .     A
C157   H106    1.086   .     S
C158   H107    1.085   .     S
C159   C160    1.409   .     A
C159   C164    1.380   .     A
C159   H108    1.087   .     S
C160   C161    1.404   .     A
C160   Si7     1.901   .     S
C161   C162    1.387   .     A
C161   H109    1.086   .     S
C162   C163    1.397   .     A
C162   H110    1.085   .     S
C163   C164    1.398   .     A
C163   C198    1.472   .     S
C164   H111    1.084   .     S
Si7    C165    1.897   .     S
Si7    C176    1.900   .     S
C165   C166    1.408   .     A
C165   C170    1.407   .     A
C166   C167    1.381   .     A
C166   H112    1.086   .     S
C167   C168    1.396   .     A
C167   H113    1.085   .     S
C168   C169    1.396   .     A
C168   C379    1.474   .     S
C169   C170    1.387   .     A
C169   H114    1.085   .     S
C170   H115    1.086   .     S
C171   C172    1.384   .     A
C171   C176    1.404   .     A
C171   H116    1.087   .     S
C172   C173    1.408   .     A
C172   H117    1.087   .     S
C173   C174    1.404   .     A
C173   Si8     1.905   .     S
C174   C175    1.383   .     A
C174   H118    1.086   .     S
C175   C176    1.407   .     A
C175   H119    1.088   .     S
Si8    C8      1.903   1_556 S
Si8    C11     1.902   1_556 S
Si8    C182    1.898   .     S
C177   C178    1.384   .     A
C177   C182    1.408   1_554 A
C177   H120    1.087   .     S
C178   C179    1.397   1_554 A
C178   H121    1.085   .     S
C179   C178    1.397   1_556 A
C179   C180    1.396   .     A
C179   C205    1.472   .     S
C180   C181    1.383   .     A
C180   H122    1.085   .     S
C181   C182    1.406   .     A
C181   H123    1.086   .     S
C182   C177    1.408   1_556 A
C183   C184    1.397   .     A
C183   C188    1.398   1_545 A
C184   C185    1.385   .     A
C184   H124    1.085   .     S
C185   C186    1.404   1_545 A
C185   H125    1.086   .     S
C186   C185    1.404   1_565 A
C186   C187    1.409   .     A
C186   Si13    1.904   .     S
C187   C188    1.382   .     A
C188   C183    1.398   1_565 A
C188   H126    1.085   .     S
C189   C190    1.385   .     A
C189   C194    1.408   .     A
C189   H127    1.087   .     S
C190   C191    1.396   .     A
C190   H128    1.085   .     S
C191   C192    1.397   .     A
C192   C193    1.383   .     A
C192   H129    1.085   .     S
C193   C194    1.406   .     A
C193   H130    1.086   1_545 S
C194   Si13    1.897   1_545 S
H130   C193    1.086   1_565 S
C195   C196    1.405   .     A
C195   C200    1.408   .     A
C195   Si11    1.901   1_455 S
C196   C197    1.385   .     A
C196   H131    1.086   .     S
C197   C198    1.397   .     A
C197   H132    1.085   .     S
C198   C199    1.398   .     A
C199   C200    1.382   .     A
C199   H133    1.084   .     S
C200   H134    1.087   .     S
C201   C202    1.386   .     A
C201   C204    1.403   1_455 A
C201   H135    1.086   .     S
C202   C203    1.396   1_455 A
C202   H136    1.085   .     S
C203   C202    1.396   1_655 A
C204   C201    1.403   1_655 A
C204   Si11    1.895   .     S
C205   C206    1.397   1_455 A
C205   C210    1.396   1_455 A
C206   C205    1.397   1_655 A
C206   C207    1.384   .     A
C206   H137    1.085   1_556 S
C207   C208    1.406   .     A
C207   H138    1.087   .     S
C208   C209    1.407   .     A
C208   Si9     1.900   .     S
C209   C210    1.384   .     A
C209   H139    1.086   .     S
C210   C205    1.396   1_655 A
C210   H140    1.085   1_655 S
H137   C206    1.085   1_554 S
H140   C210    1.085   1_455 S
C211   C212    1.406   .     A
C211   C216    1.384   .     A
C211   H141    1.086   .     S
C212   C213    1.408   .     A
C212   Si9     1.898   .     S
C213   C214    1.384   .     A
C213   H142    1.087   .     S
C214   C215    1.397   .     A
C214   H143    1.085   .     S
C215   C216    1.397   .     A
C215   C238    1.475   .     S
C216   H144    1.085   .     S
Si9    C217    1.899   .     S
Si9    C288    1.904   1_545 S
C217   C218    1.408   1_556 A
C217   C222    1.405   .     A
C218   C217    1.408   1_554 A
C218   C219    1.383   .     A
C218   H145    1.087   .     S
C219   H1      1.085   1_545 S
C219   C220    1.397   .     A
C220   C55     1.473   1_545 S
C220   C221    1.397   .     A
C221   C222    1.386   1_554 A
C221   H146    1.085   .     S
C222   C221    1.386   1_556 A
C222   H147    1.087   .     S
C223   C224    1.398   .     A
C223   C228    1.396   .     A
C223   C580    1.472   .     S
C224   C225    1.383   .     A
C224   H148    1.085   .     S
C225   C226    1.408   .     A
C225   H149    1.087   .     S
C226   C227    1.405   .     A
C226   Si10    1.902   .     S
C227   C228    1.384   .     A
C227   H150    1.086   .     S
C228   H151    1.085   .     S
C229   C230    1.410   .     A
C229   C234    1.381   .     A
C229   H152    1.087   .     S
C230   C231    1.403   .     A
C230   Si10    1.900   .     S
C231   C232    1.387   .     A
C231   H153    1.086   .     S
C232   C233    1.397   .     A
C232   H154    1.085   .     S
C233   C234    1.399   .     A
C233   C664    1.473   .     S
C234   H155    1.085   .     S
Si10   C235    1.896   .     S
Si10   C246    1.901   .     S
C235   C236    1.408   .     A
C235   C240    1.407   .     A
C236   C237    1.384   .     A
C236   H156    1.086   .     S
C237   C238    1.396   .     A
C237   H157    1.085   .     S
C238   C239    1.397   .     A
C239   C240    1.384   .     A
C239   H158    1.085   .     S
C240   H159    1.087   .     S
C241   C242    1.384   .     A
C241   C246    1.404   .     A
C241   H160    1.086   .     S
C242   C243    1.407   .     A
C242   H161    1.088   .     S
C243   C244    1.405   .     A
C243   Si11    1.900   .     S
C244   C245    1.384   .     A
C244   H162    1.086   .     S
C245   C246    1.407   .     A
C245   H163    1.088   .     S
Si11   C195    1.901   1_655 S
Si11   C250    1.898   1_655 S
C247   C248    1.398   .     A
C247   C252    1.396   1_455 A
C247   C263    1.473   .     S
C248   C249    1.384   .     A
C248   H164    1.085   .     S
C249   C250    1.408   .     A
C249   H165    1.087   .     S
C250   Si11    1.898   1_455 S
C250   C251    1.406   1_455 A
C251   C250    1.406   1_655 A
C251   C252    1.384   .     A
C251   H166    1.086   .     S
C252   C247    1.396   1_655 A
C252   H167    1.085   .     S
C253   C254    1.397   .     A
C253   C258    1.398   .     A
C253   C303    1.473   .     S
C254   C255    1.385   .     A
C254   H168    1.085   .     S
C255   C256    1.405   .     A
C255   H169    1.085   .     S
C256   C257    1.408   .     A
C256   Si12    1.902   .     S
C257   C258    1.383   .     A
C257   H170    1.087   .     S
C258   H171    1.085   .     S
C259   C260    1.406   .     A
C259   C264    1.383   .     A
C259   H172    1.086   .     S
C260   C261    1.409   .     A
C260   Si12    1.902   .     S
C261   C262    1.385   .     A
C261   H173    1.087   .     S
C262   C263    1.397   1_565 A
C262   H174    1.085   1_565 S
C263   C262    1.397   1_545 A
C263   C264    1.397   1_545 A
C264   C263    1.397   1_565 A
C264   H175    1.085   .     S
Si12   C265    1.898   .     S
Si12   C276    1.904   .     S
C265   C266    1.406   .     A
C265   C270    1.408   .     A
C266   C267    1.383   .     A
C266   H176    1.086   .     S
C267   C268    1.396   .     A
C267   H177    1.085   .     S
C268   C269    1.396   .     A
C268   C613    1.474   .     S
C269   C270    1.385   .     A
C269   H178    1.085   .     S
C270   H179    1.086   .     S
C271   C272    1.383   .     A
C271   C276    1.406   .     A
C271   H180    1.086   .     S
C272   C273    1.408   .     A
C272   H181    1.088   1_565 S
C273   C274    1.404   .     A
C273   Si13    1.903   .     S
C274   C275    1.386   .     A
C274   H182    1.085   .     S
C275   C276    1.407   .     A
C275   H183    1.087   .     S
Si13   C194    1.897   1_565 S
Si13   C277    1.901   .     S
C277   C278    1.407   .     A
C277   C282    1.408   .     A
C278   C279    1.385   .     A
C278   H184    1.086   .     S
C279   C280    1.397   .     A
C279   H185    1.085   .     S
C280   C281    1.397   .     A
C280   C520    1.472   .     S
C281   C282    1.382   .     A
C281   H186    1.085   .     S
C282   H187    1.086   .     S
H174   C262    1.085   1_545 S
H181   C272    1.088   1_545 S
C283   C284    1.383   .     A
C283   C288    1.405   .     A
C283   H188    1.086   .     S
C284   C285    1.407   .     A
C284   H189    1.088   .     S
C285   C286    1.404   .     A
C285   Si14    1.899   .     S
C286   C287    1.384   .     A
C286   H190    1.086   .     S
C287   C288    1.407   .     A
C287   H191    1.087   .     S
C288   Si9     1.904   1_565 S
Si14   C292    1.905   .     S
Si14   C295    1.900   .     S
Si14   C306    1.896   .     S
C289   C290    1.397   .     A
C289   C294    1.396   .     A
C289   C322    1.473   .     S
C290   C291    1.385   .     A
C290   H192    1.085   .     S
C291   C292    1.405   .     A
C291   H193    1.086   .     S
C292   C293    1.408   .     A
C293   C294    1.383   .     A
C293   H194    1.086   .     S
C294   H195    1.085   .     S
C295   C296    1.404   .     A
C295   C300    1.409   .     A
C296   C297    1.387   .     A
C296   H196    1.086   .     S
C297   C298    1.395   .     A
C297   H197    1.085   .     S
C298   C299    1.398   .     A
C298   C487    1.473   .     S
C299   C300    1.381   .     A
C299   H198    1.085   .     S
C300   H199    1.088   .     S
C301   C302    1.385   .     A
C301   C306    1.408   .     A
C301   H200    1.087   .     S
C302   C303    1.397   1_655 A
C302   H201    1.085   1_655 S
C303   C302    1.397   1_455 A
C303   C304    1.397   1_455 A
C304   C303    1.397   1_655 A
C304   C305    1.383   .     A
C304   H202    1.085   1_655 S
C305   C306    1.407   .     A
C305   H203    1.086   .     S
H201   C302    1.085   1_455 S
H202   C304    1.085   1_455 S
C307   C308    1.394   .     A
C307   C312    1.397   .     A
C307   C585    1.473   .     S
C308   C309    1.386   .     A
C308   H204    1.085   .     S
C309   C310    1.404   .     A
C309   H205    1.085   .     S
C310   C311    1.409   .     A
C310   Si15    1.903   .     S
C311   C312    1.381   .     A
C311   H206    1.088   .     S
C312   H207    1.085   .     S
C313   C314    1.407   .     A
C313   C318    1.384   .     A
C313   H208    1.086   .     S
C314   C315    1.408   .     A
C314   Si15    1.901   .     S
C315   C316    1.384   .     A
C315   H209    1.087   .     S
C316   C317    1.396   .     A
C316   H210    1.085   .     S
C317   C318    1.396   .     A
C317   C515    1.474   .     S
C318   H211    1.085   .     S
Si15   C319    1.899   .     S
Si15   C330    1.905   .     S
C319   C320    1.407   .     A
C319   C324    1.408   .     A
C320   C321    1.383   .     A
C320   H212    1.086   .     S
C321   C322    1.397   .     A
C321   H213    1.085   .     S
C322   C323    1.397   .     A
C323   C324    1.385   .     A
C323   H214    1.085   .     S
C324   H215    1.086   .     S
C325   C326    1.384   .     A
C325   C330    1.406   .     A
C325   H216    1.086   .     S
C326   C327    1.407   .     A
C326   H217    1.087   .     S
C327   C328    1.405   .     A
C327   Si16    1.904   .     S
C328   C329    1.384   .     A
C328   H218    1.086   .     S
C329   C330    1.407   .     A
C329   H219    1.087   .     S
Si16   C144    1.900   1_556 S
Si16   C147    1.900   1_556 S
Si16   C336    1.897   .     S
C331   C332    1.382   .     A
C331   C336    1.408   .     A
C331   H220    1.087   .     S
C332   C333    1.398   .     A
C332   H221    1.085   .     S
C333   C334    1.397   .     A
C333   C403    1.472   .     S
C334   C335    1.385   .     A
C334   H222    1.085   1_556 S
C335   C336    1.404   .     A
C335   H223    1.086   1_556 S
H222   C334    1.085   1_554 S
H223   C335    1.086   1_554 S
C337   C338    1.397   .     A
C337   C342    1.396   .     A
C337   C436    1.474   .     S
C338   C339    1.385   .     A
C338   H224    1.085   .     S
C339   C340    1.408   .     A
C339   H225    1.087   .     S
C340   C341    1.405   .     A
C340   Si17    1.901   .     S
C341   C342    1.384   .     A
C341   H226    1.086   .     S
C342   H227    1.085   .     S
C343   C344    1.408   .     A
C343   C348    1.384   .     A
C343   H228    1.087   .     S
C344   C345    1.406   .     A
C344   Si17    1.900   .     S
C345   C346    1.384   .     A
C345   H229    1.086   .     S
C346   C347    1.397   .     A
C346   H230    1.085   .     S
C347   C348    1.398   .     A
C347   C389    1.472   .     S
C348   H231    1.085   .     S
Si17   C349    1.895   .     S
Si17   C360    1.904   .     S
C349   C350    1.409   .     A
C349   C354    1.404   .     A
C350   C351    1.382   .     A
C350   H232    1.088   .     S
C351   C352    1.397   .     A
C351   H233    1.085   .     S
C352   C353    1.396   .     A
C352   C589    1.472   .     S
C353   C354    1.386   .     A
C353   H234    1.085   .     S
C354   H235    1.086   .     S
C355   C356    1.384   .     A
C355   C360    1.407   .     A
C355   H236    1.087   .     S
C356   C357    1.405   .     A
C356   H237    1.086   .     S
C357   C358    1.407   .     A
C357   Si18    1.902   .     S
C358   C359    1.384   .     A
C358   H238    1.088   .     S
C359   C360    1.405   .     A
C359   H239    1.086   .     S
Si18   C364    1.901   .     S
Si18   C367    1.900   .     S
Si18   C378    1.895   .     S
C361   C362    1.396   .     A
C361   C366    1.396   .     A
C361   C501    1.474   1_455 S
C362   C363    1.385   .     A
C362   H240    1.085   .     S
C363   C364    1.408   .     A
C363   H241    1.087   .     S
C364   C365    1.406   .     A
C365   C366    1.383   .     A
C365   H242    1.086   .     S
C366   H243    1.085   1_455 S
C367   C368    1.406   .     A
C367   C372    1.408   .     A
C368   C369    1.384   .     A
C368   H244    1.086   .     S
C369   C370    1.399   .     A
C369   H245    1.084   .     S
C370   C371    1.399   .     A
C371   C372    1.383   .     A
C371   H246    1.084   .     S
C372   H247    1.087   .     S
C373   C374    1.387   .     A
C373   C378    1.404   .     A
C373   H248    1.086   .     S
C374   C375    1.394   .     A
C374   H249    1.085   .     S
C375   C376    1.396   .     A
C376   C377    1.381   .     A
C376   H250    1.085   .     S
C377   C378    1.409   .     A
C377   H251    1.088   .     S
H243   C366    1.085   1_655 S
C379   C380    1.395   .     A
C379   C384    1.398   .     A
C380   C381    1.388   .     A
C380   H252    1.085   .     S
C381   C382    1.404   .     A
C381   H253    1.086   .     S
C382   C383    1.409   .     A
C382   Si19    1.900   .     S
C383   C384    1.380   .     A
C383   H254    1.087   .     S
C384   H255    1.085   .     S
C385   C386    1.405   .     A
C385   C390    1.384   .     A
C385   H256    1.086   .     S
C386   C387    1.408   .     A
C386   Si19    1.899   .     S
C387   C388    1.383   .     A
C387   H257    1.087   .     S
C388   C389    1.398   1_556 A
C388   H258    1.085   1_556 S
C389   C388    1.398   1_554 A
C389   C390    1.397   1_554 A
C390   C389    1.397   1_556 A
C390   H259    1.085   .     S
Si19   C391    1.893   .     S
Si19   C402    1.907   .     S
C391   C392    1.408   .     A
C391   C396    1.406   .     A
C392   C393    1.384   .     A
C392   H260    1.087   .     S
C393   C394    1.397   .     A
C393   H261    1.085   .     S
C394   C395    1.396   .     A
C394   C505    1.474   .     S
C395   C396    1.385   .     A
C395   H262    1.085   .     S
C396   H263    1.086   .     S
C397   C398    1.384   .     A
C397   C402    1.407   .     A
C397   H264    1.086   .     S
C398   C399    1.406   .     A
C398   H265    1.088   .     S
C399   C400    1.405   .     A
C399   Si20    1.903   .     S
C400   C401    1.383   .     A
C400   H266    1.086   .     S
C401   C402    1.404   .     A
C401   H267    1.087   .     S
Si20   C406    1.898   .     S
Si20   C409    1.899   .     S
Si20   C420    1.895   .     S
C403   C404    1.398   .     A
C403   C408    1.397   .     A
C404   C405    1.384   .     A
C404   H268    1.085   .     S
C405   C406    1.407   .     A
C405   H269    1.087   .     S
C406   C407    1.406   .     A
C407   C408    1.384   .     A
C407   H270    1.086   .     S
C408   H271    1.085   .     S
C409   C410    1.404   .     A
C409   C414    1.409   .     A
C410   C411    1.386   .     A
C410   H272    1.086   .     S
C411   C412    1.395   .     A
C411   H273    1.085   .     S
C412   C413    1.397   .     A
C412   C547    1.473   .     S
C413   C414    1.382   .     A
C413   H274    1.085   .     S
C414   H275    1.087   .     S
C415   C416    1.385   .     A
C415   C420    1.404   .     A
C415   H276    1.086   .     S
C416   C417    1.397   .     A
C416   H277    1.085   1_556 S
C417   C418    1.397   .     A
C417   C445    1.473   1_556 S
C418   C419    1.383   .     A
C418   H278    1.085   .     S
C419   C420    1.409   .     A
C419   H279    1.087   .     S
H258   C388    1.085   1_554 S
H277   C416    1.085   1_554 S
C421   C422    1.397   .     A
C421   C426    1.396   .     A
C422   C423    1.384   .     A
C422   H280    1.085   .     S
C423   C424    1.408   .     A
C423   H281    1.087   .     S
C424   C425    1.406   .     A
C424   Si21    1.902   .     S
C425   C426    1.384   .     A
C425   H282    1.086   .     S
C426   H283    1.085   .     S
C427   C428    1.408   .     A
C427   C432    1.384   .     A
C427   H284    1.087   .     S
C428   C429    1.407   .     A
C428   Si21    1.906   .     S
C429   C430    1.385   .     A
C429   H285    1.086   .     S
C430   C431    1.397   .     A
C430   H286    1.085   .     S
C431   C432    1.397   .     A
C431   C641    1.475   .     S
C432   H287    1.085   .     S
Si21   C433    1.898   .     S
Si21   C444    1.902   .     S
C433   C434    1.407   .     A
C433   C438    1.406   .     A
C434   C435    1.384   .     A
C434   H288    1.087   .     S
C435   C436    1.398   .     A
C435   H289    1.085   .     S
C436   C437    1.396   .     A
C437   C438    1.384   .     A
C437   H290    1.085   .     S
C438   H291    1.087   .     S
C439   C440    1.386   .     A
C439   C444    1.408   .     A
C439   H292    1.087   .     S
C440   C441    1.403   .     A
C440   H293    1.086   .     S
C441   C442    1.408   .     A
C441   Si22    1.902   .     S
C442   C443    1.383   .     A
C442   H294    1.088   .     S
C443   C444    1.406   .     A
C443   H295    1.086   .     S
Si22   C448    1.903   .     S
Si22   C451    1.900   .     S
Si22   C462    1.897   .     S
C445   C417    1.473   1_554 S
C445   C446    1.397   .     A
C445   C450    1.397   .     A
C446   C447    1.384   .     A
C446   H296    1.085   .     S
C447   C448    1.408   .     A
C447   H297    1.087   .     S
C448   C449    1.405   .     A
C449   C450    1.384   .     A
C449   H298    1.086   .     S
C450   H299    1.085   1_554 S
C451   C452    1.405   .     A
C451   C456    1.408   .     A
C452   C453    1.385   .     A
C452   H300    1.086   .     S
C453   C454    1.398   .     A
C453   H301    1.085   .     S
C454   C455    1.399   .     A
C455   C456    1.383   .     A
C455   H302    1.085   1_554 S
C456   H303    1.087   .     S
C457   C458    1.387   .     A
C457   C462    1.406   .     A
C457   H304    1.086   .     S
C458   C459    1.387   .     A
C458   H305    1.085   .     S
C459   C460    1.389   .     A
C460   C461    1.386   .     A
C460   H306    1.085   .     S
C461   C462    1.408   .     A
C461   H307    1.087   .     S
H299   C450    1.085   1_556 S
H302   C455    1.085   1_556 S
C463   C464    1.396   .     A
C463   C468    1.399   .     A
C464   C465    1.388   .     A
C464   H308    1.085   .     S
C465   C466    1.403   .     A
C465   H309    1.086   .     S
C466   C467    1.410   .     A
C466   Si23    1.903   .     S
C467   C468    1.380   .     A
C467   H310    1.088   .     S
C468   H311    1.084   .     S
C469   C470    1.405   .     A
C469   C474    1.384   .     A
C469   H312    1.086   .     S
C470   C471    1.408   .     A
C470   Si23    1.902   .     S
C471   C472    1.384   1_655 A
C471   H313    1.087   .     S
C472   C471    1.384   1_455 A
C472   C473    1.397   .     A
C472   H314    1.085   .     S
C473   C474    1.397   1_455 A
C473   C599    1.473   .     S
C474   C473    1.397   1_655 A
C474   H315    1.085   .     S
Si23   C475    1.900   .     S
Si23   C486    1.906   .     S
C475   C476    1.408   .     A
C475   C480    1.406   .     A
C476   C477    1.382   .     A
C476   H316    1.086   .     S
C477   C478    1.396   .     A
C477   H317    1.085   .     S
C478   C479    1.395   .     A
C479   C480    1.387   .     A
C479   H318    1.085   .     S
C480   H319    1.086   .     S
C481   C482    1.385   .     A
C481   C486    1.405   .     A
C481   H320    1.086   .     S
C482   C483    1.406   .     A
C482   H321    1.087   .     S
C483   C484    1.406   .     A
C483   Si24    1.903   .     S
C484   C485    1.383   .     A
C484   H322    1.086   .     S
C485   C486    1.407   .     A
C485   H323    1.087   .     S
Si24   C490    1.898   .     S
Si24   C493    1.904   .     S
Si24   C504    1.896   .     S
C487   C488    1.396   .     A
C487   C492    1.397   1_556 A
C488   C489    1.386   1_556 A
C488   H324    1.085   .     S
C489   C488    1.386   1_554 A
C489   C490    1.407   .     A
C489   H325    1.087   .     S
C490   C491    1.408   .     A
C491   C492    1.383   .     A
C491   H326    1.087   .     S
C492   C487    1.397   1_554 A
C492   H327    1.085   .     S
C493   C494    1.407   .     A
C493   C498    1.407   .     A
C494   C495    1.385   .     A
C494   H328    1.086   .     S
C495   C496    1.396   .     A
C495   H329    1.085   .     S
C496   C497    1.396   .     A
C497   C498    1.383   .     A
C497   H330    1.085   1_554 S
C498   H331    1.086   .     S
C499   C500    1.386   1_655 A
C499   C504    1.404   .     A
C499   H332    1.086   .     S
C500   C499    1.386   1_455 A
C500   C501    1.396   1_455 A
C500   H333    1.085   .     S
C501   C500    1.396   1_655 A
C501   C361    1.474   1_655 S
C501   C502    1.397   .     A
C502   C503    1.382   .     A
C502   H334    1.085   .     S
C503   C504    1.408   .     A
C503   H335    1.087   .     S
H330   C497    1.085   1_556 S
C505   C506    1.395   .     A
C505   C510    1.397   .     A
C506   C507    1.386   .     A
C506   H336    1.085   .     S
C507   C508    1.404   .     A
C507   H337    1.086   .     S
C508   C509    1.409   .     A
C508   Si25    1.901   .     S
C509   C510    1.382   .     A
C509   H338    1.088   .     S
C510   H339    1.085   .     S
C511   C512    1.406   .     A
C511   C516    1.384   .     A
C511   H340    1.086   .     S
C512   C513    1.407   .     A
C512   Si25    1.900   .     S
C513   C514    1.384   .     A
C513   H341    1.087   .     S
C514   C515    1.396   .     A
C514   H342    1.085   .     S
C515   C516    1.397   .     A
C516   H343    1.085   .     S
Si25   C517    1.897   .     S
Si25   C528    1.903   .     S
C517   C518    1.407   .     A
C517   C522    1.407   .     A
C518   C519    1.382   .     A
C518   H344    1.086   .     S
C519   C520    1.398   .     A
C519   H345    1.085   .     S
C520   C521    1.397   .     A
C521   C522    1.385   .     A
C521   H346    1.085   .     S
C522   H347    1.086   .     S
C523   C524    1.385   .     A
C523   C528    1.405   .     A
C523   H348    1.086   .     S
C524   C525    1.406   .     A
C524   H349    1.087   .     S
C525   C526    1.406   .     A
C525   Si26    1.901   .     S
C526   C527    1.383   .     A
C526   H350    1.086   .     S
C527   C528    1.407   .     A
C527   H351    1.087   .     S
Si26   C532    1.897   .     S
Si26   C535    1.904   .     S
Si26   C546    1.893   .     S
C529   C530    1.396   .     A
C529   C534    1.397   .     A
C530   C531    1.386   .     A
C530   H352    1.085   .     S
C531   C532    1.407   .     A
C531   H353    1.086   .     S
C532   C533    1.407   .     A
C533   C534    1.383   .     A
C533   H354    1.087   .     S
C534   H355    1.085   .     S
C535   C536    1.407   .     A
C535   C540    1.407   .     A
C536   C537    1.385   .     A
C536   H356    1.086   .     S
C537   C538    1.396   .     A
C537   H357    1.085   .     S
C538   C539    1.397   .     A
C538   C622    1.472   .     S
C539   C540    1.382   .     A
C539   H358    1.085   .     S
C540   H359    1.086   .     S
C541   C542    1.385   .     A
C541   C546    1.404   .     A
C541   H360    1.086   .     S
C542   C543    1.397   .     A
C542   H361    1.085   .     S
C543   C544    1.398   .     A
C543   C557    1.472   .     S
C544   C545    1.382   .     A
C544   H362    1.085   .     S
C545   C546    1.408   .     A
C545   H363    1.087   .     S
C547   C548    1.396   .     A
C547   C552    1.397   .     A
C548   C549    1.385   .     A
C548   H364    1.085   .     S
C549   C550    1.408   .     A
C549   H365    1.087   .     S
C550   C551    1.406   .     A
C550   Si27    1.897   .     S
C551   C552    1.383   .     A
C551   H366    1.086   .     S
C552   H367    1.085   .     S
C553   C554    1.408   .     A
C553   C558    1.383   .     A
C553   H368    1.087   .     S
C554   C555    1.404   .     A
C554   Si27    1.898   .     S
C555   C556    1.384   .     A
C555   H369    1.086   .     S
C556   C557    1.397   .     A
C556   H370    1.084   .     S
C557   C558    1.398   .     A
C558   H371    1.085   .     S
Si27   C559    1.893   .     S
Si27   C570    1.901   .     S
C559   C560    1.410   .     A
C559   C564    1.403   .     A
C560   C561    1.381   .     A
C560   H372    1.088   .     S
C561   C562    1.397   .     A
C561   H373    1.085   .     S
C562   C563    1.395   .     A
C562   C655    1.473   .     S
C563   C564    1.386   .     A
C563   H374    1.085   .     S
C564   H375    1.086   .     S
C565   C566    1.384   .     A
C565   C570    1.407   .     A
C565   H376    1.087   .     S
C566   C567    1.404   .     A
C566   H377    1.086   .     S
C567   C568    1.407   .     A
C567   Si28    1.902   .     S
C568   C569    1.383   .     A
C568   H378    1.087   .     S
C569   C570    1.405   .     A
C569   H379    1.086   .     S
Si28   C574    1.898   .     S
Si28   C577    1.902   .     S
Si28   C588    1.893   .     S
C571   C572    1.397   .     A
C571   C576    1.396   .     A
C572   C573    1.385   .     A
C572   H380    1.085   .     S
C573   C574    1.408   .     A
C573   H381    1.087   .     S
C574   C575    1.407   .     A
C575   C576    1.383   .     A
C575   H382    1.086   .     S
C576   H383    1.085   .     S
C577   C578    1.408   .     A
C577   C582    1.405   .     A
C578   C579    1.383   .     A
C578   H384    1.087   .     S
C579   C580    1.397   .     A
C579   H385    1.085   .     S
C580   C581    1.396   .     A
C581   C582    1.384   .     A
C581   H386    1.085   .     S
C582   H387    1.086   .     S
C583   C584    1.385   .     A
C583   C588    1.405   .     A
C583   H388    1.086   .     S
C584   C585    1.395   .     A
C584   H389    1.085   .     S
C585   C586    1.397   .     A
C586   C587    1.382   .     A
C586   H390    1.085   .     S
C587   C588    1.409   .     A
C587   H391    1.087   .     S
C589   C590    1.397   .     A
C589   C594    1.396   .     A
C590   C591    1.383   .     A
C590   H392    1.085   .     S
C591   C592    1.409   .     A
C591   H393    1.087   .     S
C592   C593    1.404   .     A
C592   Si29    1.904   .     S
C593   C594    1.384   .     A
C593   H394    1.086   .     S
C594   H395    1.085   .     S
C595   C596    1.407   .     A
C595   C600    1.385   .     A
C595   H396    1.087   .     S
C596   C597    1.407   .     A
C596   Si29    1.900   .     S
C597   C598    1.383   .     A
C597   H397    1.086   .     S
C598   C599    1.397   .     A
C598   H398    1.085   .     S
C599   C600    1.397   .     A
C600   H399    1.085   .     S
Si29   C601    1.901   .     S
Si29   C612    1.904   .     S
C601   C602    1.408   .     A
C601   C606    1.407   .     A
C602   C603    1.384   .     A
C602   H400    1.087   .     S
C603   C604    1.397   .     A
C603   H401    1.085   .     S
C604   C605    1.397   .     A
C605   C606    1.383   .     A
C605   H402    1.085   .     S
C606   H403    1.086   .     S
C607   C608    1.384   .     A
C607   C612    1.408   .     A
C607   H404    1.087   .     S
C608   C609    1.405   .     A
C608   H405    1.086   .     S
C609   C610    1.407   .     A
C609   Si30    1.904   .     S
C610   C611    1.384   .     A
C610   H406    1.087   .     S
C611   C612    1.404   .     A
C611   H407    1.086   .     S
Si30   C616    1.901   .     S
Si30   C619    1.899   .     S
Si30   C630    1.894   .     S
C613   C614    1.396   .     A
C613   C618    1.397   .     A
C614   C615    1.387   .     A
C614   H408    1.085   .     S
C615   C616    1.404   .     A
C615   H409    1.086   .     S
C616   C617    1.408   .     A
C617   C618    1.381   .     A
C617   H410    1.087   .     S
C618   H411    1.085   .     S
C619   C620    1.408   .     A
C619   C624    1.405   .     A
C620   C621    1.383   .     A
C620   H412    1.087   .     S
C621   C622    1.397   .     A
C621   H413    1.085   .     S
C622   C623    1.396   .     A
C623   C624    1.384   .     A
C623   H414    1.085   .     S
C624   H415    1.086   .     S
C625   C626    1.384   .     A
C625   C630    1.407   .     A
C625   H416    1.086   .     S
C626   C627    1.397   .     A
C626   H417    1.085   .     S
C627   C628    1.398   .     A
C628   C629    1.384   .     A
C628   H418    1.085   .     S
C629   C630    1.408   .     A
C629   H419    1.087   .     S
C631   C632    1.397   .     A
C631   C636    1.398   .     A
C632   C633    1.387   .     A
C632   H420    1.085   .     S
C633   C634    1.404   .     A
C633   H421    1.086   .     S
C634   C635    1.409   .     A
C634   Si31    1.901   .     S
C635   C636    1.382   .     A
C635   H422    1.087   .     S
C636   H423    1.085   .     S
C637   C638    1.407   .     A
C637   C642    1.384   .     A
C637   H424    1.086   .     S
C638   C639    1.408   .     A
C638   Si31    1.904   .     S
C639   C640    1.385   .     A
C639   H425    1.087   .     S
C640   C641    1.397   .     A
C640   H426    1.085   .     S
C641   C642    1.397   .     A
C642   H427    1.085   .     S
Si31   C643    1.900   .     S
Si31   C654    1.907   .     S
C643   C644    1.408   .     A
C643   C648    1.407   .     A
C644   C645    1.382   .     A
C644   H428    1.086   .     S
C645   C646    1.398   .     A
C645   H429    1.084   .     S
C646   C647    1.398   .     A
C647   C648    1.386   .     A
C647   H430    1.085   .     S
C648   H431    1.087   .     S
C649   C650    1.383   .     A
C649   C654    1.405   .     A
C649   H432    1.086   .     S
C650   C651    1.407   .     A
C650   H433    1.087   .     S
C651   C652    1.405   .     A
C651   Si32    1.901   .     S
C652   C653    1.385   .     A
C652   H434    1.086   .     S
C653   C654    1.407   .     A
C653   H435    1.087   .     S
Si32   C658    1.907   .     S
Si32   C661    1.900   .     S
Si32   C672    1.896   .     S
C655   C656    1.394   .     A
C655   C660    1.397   .     A
C656   C657    1.386   .     A
C656   H436    1.085   .     S
C657   C658    1.404   .     A
C657   H437    1.085   .     S
C658   C659    1.409   .     A
C659   C660    1.381   .     A
C659   H438    1.088   .     S
C660   H439    1.085   .     S
C661   C662    1.408   .     A
C661   C666    1.405   .     A
C662   C663    1.384   .     A
C662   H440    1.087   .     S
C663   C664    1.398   .     A
C663   H441    1.085   .     S
C664   C665    1.398   .     A
C665   C666    1.384   .     A
C665   H442    1.085   .     S
C666   H443    1.086   .     S
C667   C668    1.384   .     A
C667   C672    1.408   .     A
C667   H444    1.086   .     S
C668   C669    1.398   .     A
C668   H445    1.085   .     S
C669   C670    1.398   .     A
C670   C671    1.382   .     A
C670   H446    1.085   .     S
C671   C672    1.408   .     A
C671   H447    1.086   .     S
