data_Si_pcu_dftb_opt2
_audit_creation_date              2023-10-04
_audit_creation_method            'Materials Studio'
_symmetry_space_group_name_H-M    'P1'
_symmetry_Int_Tables_number       1
_symmetry_cell_setting            triclinic
loop_
_symmetry_equiv_pos_as_xyz
  x,y,z
_cell_length_a                    42.9377
_cell_length_b                    43.8752
_cell_length_c                    29.0074
_cell_angle_alpha                 76.1151
_cell_angle_beta                  105.9758
_cell_angle_gamma                 103.9935
loop_
_atom_site_label
_atom_site_type_symbol
_atom_site_fract_x
_atom_site_fract_y
_atom_site_fract_z
_atom_site_U_iso_or_equiv
_atom_site_adp_type
_atom_site_occupancy
C1     C     0.51799   0.00649   0.80986   0.00000  Uiso   1.00
C2     C     0.53540   0.01963   0.77322   0.00000  Uiso   1.00
C3     C     0.54415   0.05239   0.75957   0.00000  Uiso   1.00
C4     C     0.53571   0.07383   0.78117   0.00000  Uiso   1.00
C5     C     0.51836   0.06017   0.81804   0.00000  Uiso   1.00
C6     C     0.50978   0.02738   0.83220   0.00000  Uiso   1.00
H7     H     0.54178   0.00407   0.75472   0.00000  Uiso   1.00
H8     H     0.55790   0.06167   0.73120   0.00000  Uiso   1.00
H9     H     0.51140   0.07559   0.83620   0.00000  Uiso   1.00
H10    H     0.49684   0.01794   0.86140   0.00000  Uiso   1.00
C11    C     0.51513   0.10902   0.66163   0.00000  Uiso   1.00
C12    C     0.53496   0.13017   0.69227   0.00000  Uiso   1.00
C13    C     0.54443   0.16198   0.66938   0.00000  Uiso   1.00
C14    C     0.53530   0.17182   0.61937   0.00000  Uiso   1.00
C15    C     0.51604   0.15023   0.58949   0.00000  Uiso   1.00
C16    C     0.50592   0.11869   0.61154   0.00000  Uiso   1.00
Si17   Si    0.54902   0.11851   0.76106   0.00000  Uiso   1.00
C18    C     0.59573   0.12884   0.78022   0.00000  Uiso   1.00
C19    C     0.61154   0.12340   0.83010   0.00000  Uiso   1.00
C20    C     0.64544   0.13098   0.84612   0.00000  Uiso   1.00
C21    C     0.66546   0.14419   0.81284   0.00000  Uiso   1.00
C22    C     0.65031   0.14905   0.76313   0.00000  Uiso   1.00
C23    C     0.61635   0.14159   0.74737   0.00000  Uiso   1.00
C24    C     0.49505   0.13895   0.77665   0.00000  Uiso   1.00
C25    C     0.47901   0.15426   0.79707   0.00000  Uiso   1.00
C26    C     0.49623   0.17236   0.83338   0.00000  Uiso   1.00
C27    C     0.53063   0.17425   0.84750   0.00000  Uiso   1.00
C28    C     0.54670   0.15921   0.82670   0.00000  Uiso   1.00
C29    C     0.52945   0.14084   0.79079   0.00000  Uiso   1.00
Si30   Si    0.47503   0.19339   0.86259   0.00000  Uiso   1.00
C31    C     0.35920   0.16468   0.80616   0.00000  Uiso   1.00
C32    C     0.37658   0.14525   0.84540   0.00000  Uiso   1.00
C33    C     0.41035   0.15391   0.86196   0.00000  Uiso   1.00
C34    C     0.42857   0.18225   0.84029   0.00000  Uiso   1.00
C35    C     0.41066   0.20129   0.80059   0.00000  Uiso   1.00
C36    C     0.37689   0.19285   0.78397   0.00000  Uiso   1.00
C37    C     0.48791   0.23845   0.84595   0.00000  Uiso   1.00
C38    C     0.51587   0.25335   0.82719   0.00000  Uiso   1.00
C39    C     0.52490   0.28628   0.81606   0.00000  Uiso   1.00
C40    C     0.50630   0.30612   0.82317   0.00000  Uiso   1.00
C41    C     0.47840   0.29181   0.84184   0.00000  Uiso   1.00
C42    C     0.46952   0.25888   0.85287   0.00000  Uiso   1.00
C43    C     0.48453   0.19844   0.96350   0.00000  Uiso   1.00
C44    C     0.49309   0.18892   0.01365   0.00000  Uiso   1.00
C45    C     0.50485   0.16048   0.03447   0.00000  Uiso   1.00
C46    C     0.50751   0.14190   0.00329   0.00000  Uiso   1.00
C47    C     0.49891   0.15157   0.95315   0.00000  Uiso   1.00
C48    C     0.48721   0.18020   0.93144   0.00000  Uiso   1.00
H49    H     0.50664   0.08430   0.67731   0.00000  Uiso   1.00
H50    H     0.55941   0.17947   0.69143   0.00000  Uiso   1.00
H51    H     0.54369   0.19643   0.60321   0.00000  Uiso   1.00
H52    H     0.49035   0.10160   0.58932   0.00000  Uiso   1.00
H53    H     0.59685   0.11296   0.85711   0.00000  Uiso   1.00
H54    H     0.65645   0.12706   0.88498   0.00000  Uiso   1.00
H55    H     0.66524   0.15849   0.73636   0.00000  Uiso   1.00
H56    H     0.60560   0.14579   0.70839   0.00000  Uiso   1.00
H57    H     0.48052   0.12513   0.74883   0.00000  Uiso   1.00
H58    H     0.45241   0.15204   0.78466   0.00000  Uiso   1.00
H59    H     0.54516   0.18778   0.87567   0.00000  Uiso   1.00
H60    H     0.57333   0.16177   0.83879   0.00000  Uiso   1.00
H61    H     0.36361   0.12297   0.86285   0.00000  Uiso   1.00
H62    H     0.42299   0.13824   0.89268   0.00000  Uiso   1.00
H63    H     0.42348   0.22341   0.78234   0.00000  Uiso   1.00
H64    H     0.36402   0.20864   0.75386   0.00000  Uiso   1.00
H65    H     0.53099   0.23883   0.82096   0.00000  Uiso   1.00
H66    H     0.54693   0.29670   0.80222   0.00000  Uiso   1.00
H67    H     0.46315   0.30657   0.84700   0.00000  Uiso   1.00
H68    H     0.44750   0.24872   0.86696   0.00000  Uiso   1.00
H69    H     0.47555   0.22075   0.94879   0.00000  Uiso   1.00
H70    H     0.49028   0.20360   0.03694   0.00000  Uiso   1.00
H71    H     0.51698   0.11990   0.01841   0.00000  Uiso   1.00
H72    H     0.50153   0.13653   0.93018   0.00000  Uiso   1.00
C73    C     0.17507   0.01874   0.78421   0.00000  Uiso   1.00
C74    C     0.19694   0.03185   0.75360   0.00000  Uiso   1.00
C75    C     0.20580   0.06462   0.74016   0.00000  Uiso   1.00
C76    C     0.19331   0.08602   0.75634   0.00000  Uiso   1.00
C77    C     0.17147   0.07235   0.78720   0.00000  Uiso   1.00
C78    C     0.16251   0.03956   0.80084   0.00000  Uiso   1.00
H79    H     0.20674   0.01623   0.73964   0.00000  Uiso   1.00
H80    H     0.22293   0.07397   0.71638   0.00000  Uiso   1.00
H81    H     0.16124   0.08775   0.80100   0.00000  Uiso   1.00
H82    H     0.14592   0.03002   0.82527   0.00000  Uiso   1.00
C83    C     0.17401   0.12015   0.63751   0.00000  Uiso   1.00
C84    C     0.19234   0.14216   0.66763   0.00000  Uiso   1.00
C85    C     0.19964   0.17421   0.64421   0.00000  Uiso   1.00
C86    C     0.18978   0.18355   0.59418   0.00000  Uiso   1.00
C87    C     0.17188   0.16120   0.56482   0.00000  Uiso   1.00
C88    C     0.16401   0.12935   0.58743   0.00000  Uiso   1.00
Si89   Si    0.20679   0.13070   0.73639   0.00000  Uiso   1.00
C90    C     0.25349   0.14090   0.75560   0.00000  Uiso   1.00
C91    C     0.26927   0.13327   0.80520   0.00000  Uiso   1.00
C92    C     0.30316   0.14071   0.82154   0.00000  Uiso   1.00
C93    C     0.32317   0.15605   0.78884   0.00000  Uiso   1.00
C94    C     0.30804   0.16325   0.73935   0.00000  Uiso   1.00
C95    C     0.27409   0.15588   0.72328   0.00000  Uiso   1.00
C96    C     0.15323   0.15207   0.75184   0.00000  Uiso   1.00
C97    C     0.13741   0.16665   0.77372   0.00000  Uiso   1.00
C98    C     0.15466   0.18292   0.81219   0.00000  Uiso   1.00
C99    C     0.18887   0.18367   0.82702   0.00000  Uiso   1.00
C100   C     0.20473   0.16926   0.80493   0.00000  Uiso   1.00
C101   C     0.18744   0.15279   0.76676   0.00000  Uiso   1.00
Si102  Si    0.13384   0.20323   0.84316   0.00000  Uiso   1.00
C103   C     0.01895   0.17311   0.78426   0.00000  Uiso   1.00
C104   C     0.03201   0.16624   0.83834   0.00000  Uiso   1.00
C105   C     0.06836   0.17264   0.85447   0.00000  Uiso   1.00
C106   C     0.08729   0.19140   0.82308   0.00000  Uiso   1.00
C107   C     0.07187   0.20109   0.77261   0.00000  Uiso   1.00
C108   C     0.03921   0.18845   0.75294   0.00000  Uiso   1.00
C109   C     0.14547   0.24837   0.82513   0.00000  Uiso   1.00
C110   C     0.17753   0.26359   0.82025   0.00000  Uiso   1.00
C111   C     0.18611   0.29643   0.80725   0.00000  Uiso   1.00
C112   C     0.16291   0.31588   0.79840   0.00000  Uiso   1.00
C113   C     0.13098   0.30130   0.80340   0.00000  Uiso   1.00
C114   C     0.12258   0.26842   0.81642   0.00000  Uiso   1.00
C115   C     0.14583   0.20926   0.94389   0.00000  Uiso   1.00
C116   C     0.15491   0.19997   0.99405   0.00000  Uiso   1.00
C117   C     0.16646   0.17140   0.01478   0.00000  Uiso   1.00
C118   C     0.16856   0.15256   0.98356   0.00000  Uiso   1.00
C119   C     0.15942   0.16199   0.93343   0.00000  Uiso   1.00
C120   C     0.14777   0.19064   0.91183   0.00000  Uiso   1.00
H121   H     0.16735   0.09515   0.65363   0.00000  Uiso   1.00
H122   H     0.21347   0.19229   0.66584   0.00000  Uiso   1.00
H123   H     0.19649   0.20842   0.57760   0.00000  Uiso   1.00
H124   H     0.14954   0.11159   0.56570   0.00000  Uiso   1.00
H125   H     0.25456   0.12117   0.83172   0.00000  Uiso   1.00
H126   H     0.31416   0.13499   0.86024   0.00000  Uiso   1.00
H127   H     0.32299   0.17445   0.71296   0.00000  Uiso   1.00
H128   H     0.26333   0.16192   0.68449   0.00000  Uiso   1.00
H129   H     0.13866   0.13975   0.72227   0.00000  Uiso   1.00
H130   H     0.11093   0.16524   0.76069   0.00000  Uiso   1.00
H131   H     0.20346   0.19571   0.85686   0.00000  Uiso   1.00
H132   H     0.23123   0.17082   0.81781   0.00000  Uiso   1.00
H133   H     0.02276   0.18000   0.85718   0.00000  Uiso   1.00
H134   H     0.07921   0.16381   0.89237   0.00000  Uiso   1.00
H135   H     0.08692   0.21678   0.74860   0.00000  Uiso   1.00
H136   H     0.02978   0.19162   0.71368   0.00000  Uiso   1.00
H137   H     0.19631   0.24935   0.82670   0.00000  Uiso   1.00
H138   H     0.21124   0.30714   0.80445   0.00000  Uiso   1.00
H139   H     0.11234   0.31577   0.79619   0.00000  Uiso   1.00
H140   H     0.09742   0.25799   0.81961   0.00000  Uiso   1.00
H141   H     0.13696   0.23163   0.92910   0.00000  Uiso   1.00
H142   H     0.15261   0.21486   0.01741   0.00000  Uiso   1.00
H143   H     0.17791   0.13051  -0.00136   0.00000  Uiso   1.00
H144   H     0.16148   0.14671   0.91040   0.00000  Uiso   1.00
C145   C     0.51561   0.34116   0.81096   0.00000  Uiso   1.00
C146   C     0.52911   0.35582   0.77058   0.00000  Uiso   1.00
C147   C     0.53746   0.38876   0.75890   0.00000  Uiso   1.00
C148   C     0.53282   0.40886   0.78670   0.00000  Uiso   1.00
C149   C     0.51932   0.39361   0.82721   0.00000  Uiso   1.00
C150   C     0.51092   0.36067   0.83914   0.00000  Uiso   1.00
H151   H     0.53258   0.34133   0.74756   0.00000  Uiso   1.00
H152   H     0.54767   0.39923   0.72701   0.00000  Uiso   1.00
H153   H     0.51514   0.40787   0.85003   0.00000  Uiso   1.00
H154   H     0.50093   0.34996   0.87111   0.00000  Uiso   1.00
C155   C     0.50248   0.44935   0.67359   0.00000  Uiso   1.00
C156   C     0.53132   0.46594   0.70056   0.00000  Uiso   1.00
C157   C     0.54878   0.49259   0.67419   0.00000  Uiso   1.00
C158   C     0.53827   0.50203   0.62427   0.00000  Uiso   1.00
C159   C     0.50971   0.48505   0.59816   0.00000  Uiso   1.00
C160   C     0.49193   0.45853   0.62364   0.00000  Uiso   1.00
Si161  Si    0.54487   0.45400   0.76935   0.00000  Uiso   1.00
C162   C     0.59142   0.46654   0.78877   0.00000  Uiso   1.00
C163   C     0.60739   0.48665   0.82276   0.00000  Uiso   1.00
C164   C     0.64144   0.49425   0.83698   0.00000  Uiso   1.00
C165   C     0.66122   0.48242   0.81715   0.00000  Uiso   1.00
C166   C     0.64592   0.46290   0.78256   0.00000  Uiso   1.00
C167   C     0.61189   0.45503   0.76909   0.00000  Uiso   1.00
C168   C     0.49902   0.49183   0.77277   0.00000  Uiso   1.00
C169   C     0.48357   0.50643   0.79516   0.00000  Uiso   1.00
C170   C     0.49188   0.50475   0.84600   0.00000  Uiso   1.00
C171   C     0.51657   0.48726   0.87291   0.00000  Uiso   1.00
C172   C     0.53179   0.47236   0.85058   0.00000  Uiso   1.00
C173   C     0.52369   0.47425   0.79970   0.00000  Uiso   1.00
Si174  Si    0.47028   0.52619   0.87407   0.00000  Uiso   1.00
C175   C     0.35500   0.49710   0.81197   0.00000  Uiso   1.00
C176   C     0.37140   0.47879   0.85388   0.00000  Uiso   1.00
C177   C     0.40494   0.48760   0.87223   0.00000  Uiso   1.00
C178   C     0.42401   0.51492   0.84974   0.00000  Uiso   1.00
C179   C     0.40712   0.53276   0.80722   0.00000  Uiso   1.00
C180   C     0.37354   0.52425   0.78889   0.00000  Uiso   1.00
C181   C     0.48390   0.57097   0.85552   0.00000  Uiso   1.00
C182   C     0.51443   0.58413   0.84304   0.00000  Uiso   1.00
C183   C     0.52459   0.61677   0.82965   0.00000  Uiso   1.00
C184   C     0.50455   0.63802   0.82783   0.00000  Uiso   1.00
C185   C     0.47425   0.62544   0.84055   0.00000  Uiso   1.00
C186   C     0.46432   0.59280   0.85417   0.00000  Uiso   1.00
C187   C     0.49338   0.53649   0.97399   0.00000  Uiso   1.00
C188   C     0.50266   0.52742   0.02418   0.00000  Uiso   1.00
C189   C     0.50059   0.49518   0.04593   0.00000  Uiso   1.00
C190   C     0.48873   0.47235   0.01586   0.00000  Uiso   1.00
C191   C     0.47967   0.48159   0.96571   0.00000  Uiso   1.00
C192   C     0.48177   0.51397   0.94298   0.00000  Uiso   1.00
H193   H     0.48798   0.42868   0.69225   0.00000  Uiso   1.00
H194   H     0.57127   0.50621   0.69327   0.00000  Uiso   1.00
H195   H     0.55270   0.52247   0.60516   0.00000  Uiso   1.00
H196   H     0.46942   0.44524   0.60423   0.00000  Uiso   1.00
H197   H     0.59290   0.49673   0.83852   0.00000  Uiso   1.00
H198   H     0.65283   0.50991   0.86327   0.00000  Uiso   1.00
H199   H     0.66084   0.45334   0.76683   0.00000  Uiso   1.00
H200   H     0.60082   0.43947   0.74248   0.00000  Uiso   1.00
H201   H     0.49174   0.49408   0.73333   0.00000  Uiso   1.00
H202   H     0.46454   0.51960   0.77259   0.00000  Uiso   1.00
H203   H     0.52413   0.48525   0.91229   0.00000  Uiso   1.00
H204   H     0.55051   0.45889   0.87334   0.00000  Uiso   1.00
H205   H     0.35788   0.45722   0.87216   0.00000  Uiso   1.00
H206   H     0.41661   0.47278   0.90510   0.00000  Uiso   1.00
H207   H     0.42057   0.55404   0.78808   0.00000  Uiso   1.00
H208   H     0.36151   0.53922   0.75664   0.00000  Uiso   1.00
H209   H     0.53065   0.56839   0.84378   0.00000  Uiso   1.00
H210   H     0.54854   0.62585   0.82094   0.00000  Uiso   1.00
H211   H     0.45798   0.64130   0.83899   0.00000  Uiso   1.00
H212   H     0.44058   0.58398   0.86380   0.00000  Uiso   1.00
H213   H     0.49534   0.56181   0.95841   0.00000  Uiso   1.00
H214   H     0.51130   0.54558   0.04680   0.00000  Uiso   1.00
H215   H     0.48722   0.44716   0.03183   0.00000  Uiso   1.00
H216   H     0.47093   0.46313   0.94354   0.00000  Uiso   1.00
C217   C     0.17190   0.35081   0.78384   0.00000  Uiso   1.00
C218   C     0.19358   0.36411   0.75298   0.00000  Uiso   1.00
C219   C     0.20211   0.39690   0.73939   0.00000  Uiso   1.00
C220   C     0.18944   0.41813   0.75564   0.00000  Uiso   1.00
C221   C     0.16771   0.40428   0.78663   0.00000  Uiso   1.00
C222   C     0.15909   0.37146   0.80042   0.00000  Uiso   1.00
H223   H     0.20354   0.34862   0.73901   0.00000  Uiso   1.00
H224   H     0.21914   0.40640   0.71549   0.00000  Uiso   1.00
H225   H     0.15732   0.41956   0.80043   0.00000  Uiso   1.00
H226   H     0.14259   0.36177   0.82497   0.00000  Uiso   1.00
C227   C     0.17210   0.45329   0.63627   0.00000  Uiso   1.00
C228   C     0.18994   0.47480   0.66742   0.00000  Uiso   1.00
C229   C     0.19789   0.50701   0.64508   0.00000  Uiso   1.00
C230   C     0.18901   0.51699   0.59506   0.00000  Uiso   1.00
C231   C     0.17154   0.49513   0.56468   0.00000  Uiso   1.00
C232   C     0.16311   0.46312   0.58618   0.00000  Uiso   1.00
Si233  Si    0.20313   0.46282   0.73624   0.00000  Uiso   1.00
C234   C     0.24975   0.47285   0.75704   0.00000  Uiso   1.00
C235   C     0.26459   0.46602   0.80716   0.00000  Uiso   1.00
C236   C     0.29832   0.47370   0.82484   0.00000  Uiso   1.00
C237   C     0.31916   0.48833   0.79307   0.00000  Uiso   1.00
C238   C     0.30497   0.49458   0.74309   0.00000  Uiso   1.00
C239   C     0.27115   0.48711   0.72568   0.00000  Uiso   1.00
C240   C     0.14930   0.48438   0.75084   0.00000  Uiso   1.00
C241   C     0.13354   0.49965   0.77174   0.00000  Uiso   1.00
C242   C     0.15084   0.51673   0.80927   0.00000  Uiso   1.00
C243   C     0.18504   0.51747   0.82424   0.00000  Uiso   1.00
C244   C     0.20086   0.50244   0.80304   0.00000  Uiso   1.00
C245   C     0.18353   0.48519   0.76578   0.00000  Uiso   1.00
Si246  Si    0.13033   0.53789   0.83945   0.00000  Uiso   1.00
C247   C     0.01554   0.50790   0.77964   0.00000  Uiso   1.00
C248   C     0.02819   0.50313   0.83384   0.00000  Uiso   1.00
C249   C     0.06450   0.50951   0.85051   0.00000  Uiso   1.00
C250   C     0.08377   0.52679   0.81872   0.00000  Uiso   1.00
C251   C     0.06870   0.53491   0.76771   0.00000  Uiso   1.00
C252   C     0.03614   0.52183   0.74831   0.00000  Uiso   1.00
C253   C     0.14325   0.58295   0.82217   0.00000  Uiso   1.00
C254   C     0.17633   0.59741   0.82254   0.00000  Uiso   1.00
C255   C     0.18609   0.63017   0.81045   0.00000  Uiso   1.00
C256   C     0.16312   0.65031   0.79741   0.00000  Uiso   1.00
C257   C     0.13018   0.63649   0.79713   0.00000  Uiso   1.00
C258   C     0.12058   0.60366   0.80915   0.00000  Uiso   1.00
C259   C     0.14228   0.54367   0.94042   0.00000  Uiso   1.00
C260   C     0.15061   0.53383   0.99054   0.00000  Uiso   1.00
C261   C     0.16067   0.50453   0.01099   0.00000  Uiso   1.00
C262   C     0.16214   0.48554   0.97954   0.00000  Uiso   1.00
C263   C     0.15377   0.49553   0.92946   0.00000  Uiso   1.00
C264   C     0.14355   0.52489   0.90814   0.00000  Uiso   1.00
H265   H     0.16501   0.42819   0.65155   0.00000  Uiso   1.00
H266   H     0.21143   0.52470   0.66756   0.00000  Uiso   1.00
H267   H     0.19614   0.54196   0.57932   0.00000  Uiso   1.00
H268   H     0.14900   0.44575   0.56354   0.00000  Uiso   1.00
H269   H     0.24926   0.45440   0.83301   0.00000  Uiso   1.00
H270   H     0.30852   0.46872   0.86388   0.00000  Uiso   1.00
H271   H     0.32055   0.50517   0.71739   0.00000  Uiso   1.00
H272   H     0.26113   0.49251   0.68657   0.00000  Uiso   1.00
H273   H     0.13468   0.47145   0.72199   0.00000  Uiso   1.00
H274   H     0.10704   0.49815   0.75870   0.00000  Uiso   1.00
H275   H     0.19968   0.53003   0.85347   0.00000  Uiso   1.00
H276   H     0.22737   0.50413   0.81592   0.00000  Uiso   1.00
H277   H     0.01879   0.51815   0.85038   0.00000  Uiso   1.00
H278   H     0.07505   0.50182   0.88894   0.00000  Uiso   1.00
H279   H     0.08396   0.54960   0.74328   0.00000  Uiso   1.00
H280   H     0.02702   0.52357   0.70915   0.00000  Uiso   1.00
H281   H     0.19500   0.58265   0.83254   0.00000  Uiso   1.00
H282   H     0.21194   0.64030   0.81174   0.00000  Uiso   1.00
H283   H     0.11176   0.65153   0.78660   0.00000  Uiso   1.00
H284   H     0.09468   0.59384   0.80820   0.00000  Uiso   1.00
H285   H     0.13453   0.56659   0.92584   0.00000  Uiso   1.00
H286   H     0.14886   0.54888   0.01409   0.00000  Uiso   1.00
H287   H     0.17038   0.46292  -0.00558   0.00000  Uiso   1.00
H288   H     0.15531   0.48011   0.90624   0.00000  Uiso   1.00
C289   C     0.85857   0.33004   0.82812   0.00000  Uiso   1.00
C290   C     0.87577   0.34352   0.79132   0.00000  Uiso   1.00
C291   C     0.88397   0.37635   0.77762   0.00000  Uiso   1.00
C292   C     0.87521   0.39749   0.79940   0.00000  Uiso   1.00
C293   C     0.85837   0.38345   0.83679   0.00000  Uiso   1.00
C294   C     0.85027   0.35062   0.85090   0.00000  Uiso   1.00
H295   H     0.88236   0.32818   0.77267   0.00000  Uiso   1.00
H296   H     0.89751   0.38589   0.74904   0.00000  Uiso   1.00
H297   H     0.85139   0.39858   0.85541   0.00000  Uiso   1.00
H298   H     0.83762   0.34090   0.88038   0.00000  Uiso   1.00
C299   C     0.85463   0.43237   0.67912   0.00000  Uiso   1.00
C300   C     0.87254   0.45394   0.71013   0.00000  Uiso   1.00
C301   C     0.87998   0.48620   0.68765   0.00000  Uiso   1.00
C302   C     0.87096   0.49610   0.63763   0.00000  Uiso   1.00
C303   C     0.85379   0.47410   0.60735   0.00000  Uiso   1.00
C304   C     0.84550   0.44210   0.62903   0.00000  Uiso   1.00
Si305  Si    0.88702   0.44232   0.77886   0.00000  Uiso   1.00
C306   C     0.93363   0.45437   0.79804   0.00000  Uiso   1.00
C307   C     0.94844   0.44688   0.84927   0.00000  Uiso   1.00
C308   C     0.98112   0.45950   0.86871   0.00000  Uiso   1.00
C309   C     1.00195   0.47282   0.83755   0.00000  Uiso   1.00
C310   C     0.98944   0.47743   0.78336   0.00000  Uiso   1.00
C311   C     0.95317   0.47080   0.76624   0.00000  Uiso   1.00
C312   C     0.83255   0.45631   0.80402   0.00000  Uiso   1.00
C313   C     0.81670   0.47148   0.82494   0.00000  Uiso   1.00
C314   C     0.83406   0.49560   0.85175   0.00000  Uiso   1.00
C315   C     0.86840   0.50335   0.85629   0.00000  Uiso   1.00
C316   C     0.88431   0.48795   0.83580   0.00000  Uiso   1.00
C317   C     0.86694   0.46385   0.80899   0.00000  Uiso   1.00
Si318  Si    0.81380   0.51649   0.88269   0.00000  Uiso   1.00
C319   C     0.69746   0.49030   0.83268   0.00000  Uiso   1.00
C320   C     0.71292   0.48898   0.88202   0.00000  Uiso   1.00
C321   C     0.74696   0.49611   0.89679   0.00000  Uiso   1.00
C322   C     0.76719   0.50533   0.86319   0.00000  Uiso   1.00
C323   C     0.75103   0.50678   0.81360   0.00000  Uiso   1.00
C324   C     0.71703   0.49922   0.79862   0.00000  Uiso   1.00
C325   C     0.82671   0.56155   0.86572   0.00000  Uiso   1.00
C326   C     0.85849   0.57724   0.88599   0.00000  Uiso   1.00
C327   C     0.86870   0.60991   0.87328   0.00000  Uiso   1.00
C328   C     0.84734   0.62866   0.83984   0.00000  Uiso   1.00
C329   C     0.81558   0.61365   0.81962   0.00000  Uiso   1.00
C330   C     0.80565   0.58091   0.83217   0.00000  Uiso   1.00
C331   C     0.82277   0.52064   0.98346   0.00000  Uiso   1.00
C332   C     0.83161   0.51113   0.03358   0.00000  Uiso   1.00
C333   C     0.84618   0.48423   0.05418   0.00000  Uiso   1.00
C334   C     0.85168   0.46739   0.02288   0.00000  Uiso   1.00
C335   C     0.84271   0.47700   0.97276   0.00000  Uiso   1.00
C336   C     0.82791   0.50389   0.95129   0.00000  Uiso   1.00
H337   H     0.84761   0.40727   0.69446   0.00000  Uiso   1.00
H338   H     0.89325   0.50403   0.71002   0.00000  Uiso   1.00
H339   H     0.87782   0.52110   0.62181   0.00000  Uiso   1.00
H340   H     0.83144   0.42465   0.60652   0.00000  Uiso   1.00
H341   H     0.93285   0.43305   0.87377   0.00000  Uiso   1.00
H342   H     0.99013   0.45804   0.90785   0.00000  Uiso   1.00
H343   H    -0.00081   0.46256   0.76703   0.00000  Uiso   1.00
H344   H     0.94292   0.47773   0.72752   0.00000  Uiso   1.00
H345   H     0.81787   0.43802   0.78325   0.00000  Uiso   1.00
H346   H     0.79015   0.46434   0.82039   0.00000  Uiso   1.00
H347   H     0.88308   0.52188   0.87655   0.00000  Uiso   1.00
H348   H     0.91091   0.49480   0.84076   0.00000  Uiso   1.00
H349   H     0.69816   0.48177   0.90910   0.00000  Uiso   1.00
H350   H     0.75812   0.49445   0.93555   0.00000  Uiso   1.00
H351   H     0.76546   0.51402   0.78602   0.00000  Uiso   1.00
H352   H     0.70549   0.50074   0.76004   0.00000  Uiso   1.00
H353   H     0.87565   0.56351   0.91264   0.00000  Uiso   1.00
H354   H     0.89332   0.62112   0.89007   0.00000  Uiso   1.00
H355   H     0.79864   0.62767   0.79325   0.00000  Uiso   1.00
H356   H     0.78079   0.57011   0.81546   0.00000  Uiso   1.00
H357   H     0.81152   0.54169   0.96875   0.00000  Uiso   1.00
H358   H     0.82672   0.52446   0.05701   0.00000  Uiso   1.00
H359   H     0.86348   0.44676   0.03789   0.00000  Uiso   1.00
H360   H     0.84742   0.46329   0.94964   0.00000  Uiso   1.00
C361   C     0.51492   0.67272   0.81258   0.00000  Uiso   1.00
C362   C     0.53329   0.68477   0.77695   0.00000  Uiso   1.00
C363   C     0.54281   0.71736   0.76244   0.00000  Uiso   1.00
C364   C     0.53430   0.73969   0.78225   0.00000  Uiso   1.00
C365   C     0.51599   0.72710   0.81817   0.00000  Uiso   1.00
C366   C     0.50657   0.69449   0.83310   0.00000  Uiso   1.00
H367   H     0.53982   0.66847   0.75992   0.00000  Uiso   1.00
H368   H     0.55726   0.72580   0.73486   0.00000  Uiso   1.00
H369   H     0.50892   0.74322   0.83496   0.00000  Uiso   1.00
H370   H     0.49289   0.68587   0.86150   0.00000  Uiso   1.00
C371   C     0.51504   0.77477   0.66183   0.00000  Uiso   1.00
C372   C     0.53422   0.79597   0.69278   0.00000  Uiso   1.00
C373   C     0.54306   0.82800   0.67024   0.00000  Uiso   1.00
C374   C     0.53390   0.83803   0.62027   0.00000  Uiso   1.00
C375   C     0.51525   0.81642   0.59007   0.00000  Uiso   1.00
C376   C     0.50580   0.78464   0.61177   0.00000  Uiso   1.00
Si377  Si    0.54844   0.78418   0.76153   0.00000  Uiso   1.00
C378   C     0.59521   0.79391   0.78008   0.00000  Uiso   1.00
C379   C     0.61142   0.78799   0.82974   0.00000  Uiso   1.00
C380   C     0.64536   0.79554   0.84519   0.00000  Uiso   1.00
C381   C     0.66505   0.80914   0.81153   0.00000  Uiso   1.00
C382   C     0.64949   0.81440   0.76199   0.00000  Uiso   1.00
C383   C     0.61549   0.80703   0.74681   0.00000  Uiso   1.00
C384   C     0.49544   0.80661   0.77625   0.00000  Uiso   1.00
C385   C     0.47973   0.82174   0.79747   0.00000  Uiso   1.00
C386   C     0.49702   0.83805   0.83588   0.00000  Uiso   1.00
C387   C     0.53115   0.83841   0.85120   0.00000  Uiso   1.00
C388   C     0.54691   0.82356   0.82961   0.00000  Uiso   1.00
C389   C     0.52958   0.80692   0.79163   0.00000  Uiso   1.00
Si390  Si    0.47612   0.85904   0.86564   0.00000  Uiso   1.00
C391   C     0.36025   0.83036   0.80934   0.00000  Uiso   1.00
C392   C     0.37752   0.81151   0.84959   0.00000  Uiso   1.00
C393   C     0.41129   0.82021   0.86613   0.00000  Uiso   1.00
C394   C     0.42966   0.84798   0.84338   0.00000  Uiso   1.00
C395   C     0.41188   0.86640   0.80260   0.00000  Uiso   1.00
C396   C     0.37810   0.85796   0.78607   0.00000  Uiso   1.00
C397   C     0.48941   0.90406   0.84909   0.00000  Uiso   1.00
C398   C     0.51903   0.91836   0.83444   0.00000  Uiso   1.00
C399   C     0.52845   0.95118   0.82243   0.00000  Uiso   1.00
C400   C     0.50849   0.97159   0.82407   0.00000  Uiso   1.00
C401   C     0.47906   0.95788   0.83896   0.00000  Uiso   1.00
C402   C     0.46992   0.92504   0.85128   0.00000  Uiso   1.00
C403   C     0.48751   0.86472   0.96662   0.00000  Uiso   1.00
C404   C     0.49576   0.85493   0.01675   0.00000  Uiso   1.00
C405   C     0.50516   0.82536   0.03733   0.00000  Uiso   1.00
C406   C     0.50591   0.80597   0.00599   0.00000  Uiso   1.00
C407   C     0.49767   0.81593   0.95588   0.00000  Uiso   1.00
C408   C     0.48825   0.84564   0.93442   0.00000  Uiso   1.00
H409   H     0.50709   0.74986   0.67722   0.00000  Uiso   1.00
H410   H     0.55757   0.84550   0.69255   0.00000  Uiso   1.00
H411   H     0.54179   0.86282   0.60441   0.00000  Uiso   1.00
H412   H     0.49072   0.76750   0.58931   0.00000  Uiso   1.00
H413   H     0.59701   0.77721   0.85704   0.00000  Uiso   1.00
H414   H     0.65668   0.79129   0.88394   0.00000  Uiso   1.00
H415   H     0.66414   0.82413   0.73489   0.00000  Uiso   1.00
H416   H     0.60442   0.81162   0.70795   0.00000  Uiso   1.00
H417   H     0.48084   0.79417   0.74682   0.00000  Uiso   1.00
H418   H     0.45332   0.82076   0.78404   0.00000  Uiso   1.00
H419   H     0.54571   0.85050   0.88101   0.00000  Uiso   1.00
H420   H     0.57337   0.82488   0.84274   0.00000  Uiso   1.00
H421   H     0.36446   0.78964   0.86791   0.00000  Uiso   1.00
H422   H     0.42380   0.80500   0.89770   0.00000  Uiso   1.00
H423   H     0.42481   0.88803   0.78341   0.00000  Uiso   1.00
H424   H     0.36536   0.87332   0.75513   0.00000  Uiso   1.00
H425   H     0.53518   0.90342   0.83219   0.00000  Uiso   1.00
H426   H     0.55178   0.96106   0.81200   0.00000  Uiso   1.00
H427   H     0.46280   0.97301   0.84011   0.00000  Uiso   1.00
H428   H     0.44679   0.91538   0.86254   0.00000  Uiso   1.00
H429   H     0.48034   0.88789   0.95201   0.00000  Uiso   1.00
H430   H     0.49452   0.87028   0.04022   0.00000  Uiso   1.00
H431   H     0.51355   0.78307   0.02098   0.00000  Uiso   1.00
H432   H     0.49876   0.80026   0.93273   0.00000  Uiso   1.00
C433   C     0.17347   0.68517   0.78406   0.00000  Uiso   1.00
C434   C     0.19753   0.69801   0.75701   0.00000  Uiso   1.00
C435   C     0.20722   0.73075   0.74442   0.00000  Uiso   1.00
C436   C     0.19348   0.75236   0.75805   0.00000  Uiso   1.00
C437   C     0.16944   0.73895   0.78538   0.00000  Uiso   1.00
C438   C     0.15958   0.70619   0.79806   0.00000  Uiso   1.00
H439   H     0.20842   0.68222   0.74516   0.00000  Uiso   1.00
H440   H     0.22602   0.73990   0.72338   0.00000  Uiso   1.00
H441   H     0.15817   0.75452   0.79713   0.00000  Uiso   1.00
H442   H     0.14122   0.69683   0.81971   0.00000  Uiso   1.00
C443   C     0.17730   0.78691   0.63900   0.00000  Uiso   1.00
C444   C     0.19430   0.80876   0.66996   0.00000  Uiso   1.00
C445   C     0.20120   0.84106   0.64739   0.00000  Uiso   1.00
C446   C     0.19207   0.85081   0.59735   0.00000  Uiso   1.00
C447   C     0.17541   0.82862   0.56717   0.00000  Uiso   1.00
C448   C     0.16808   0.79650   0.58889   0.00000  Uiso   1.00
Si449  Si    0.20783   0.79696   0.73880   0.00000  Uiso   1.00
C450   C     0.25453   0.80669   0.75869   0.00000  Uiso   1.00
C451   C     0.27023   0.79948   0.80839   0.00000  Uiso   1.00
C452   C     0.30412   0.80690   0.82477   0.00000  Uiso   1.00
C453   C     0.32423   0.82173   0.79202   0.00000  Uiso   1.00
C454   C     0.30916   0.82844   0.74242   0.00000  Uiso   1.00
C455   C     0.27521   0.82117   0.72633   0.00000  Uiso   1.00
C456   C     0.15438   0.81963   0.75217   0.00000  Uiso   1.00
C457   C     0.13853   0.83465   0.77334   0.00000  Uiso   1.00
C458   C     0.15557   0.85057   0.81227   0.00000  Uiso   1.00
C459   C     0.18962   0.85054   0.82827   0.00000  Uiso   1.00
C460   C     0.20551   0.83569   0.80690   0.00000  Uiso   1.00
C461   C     0.18841   0.81953   0.76830   0.00000  Uiso   1.00
Si462  Si    0.13478   0.87135   0.84257   0.00000  Uiso   1.00
C463   C     0.01984   0.84172   0.78312   0.00000  Uiso   1.00
C464   C     0.03294   0.83438   0.83716   0.00000  Uiso   1.00
C465   C     0.06928   0.84081   0.85331   0.00000  Uiso   1.00
C466   C     0.08822   0.85984   0.82211   0.00000  Uiso   1.00
C467   C     0.07280   0.86987   0.77176   0.00000  Uiso   1.00
C468   C     0.04013   0.85739   0.75193   0.00000  Uiso   1.00
C469   C     0.14702   0.91642   0.82459   0.00000  Uiso   1.00
C470   C     0.17925   0.93117   0.82004   0.00000  Uiso   1.00
C471   C     0.18836   0.96398   0.80731   0.00000  Uiso   1.00
C472   C     0.16554   0.98384   0.79842   0.00000  Uiso   1.00
C473   C     0.13344   0.96971   0.80304   0.00000  Uiso   1.00
C474   C     0.12451   0.93686   0.81579   0.00000  Uiso   1.00
C475   C     0.14762   0.87791   0.94334   0.00000  Uiso   1.00
C476   C     0.15644   0.86847  -0.00650   0.00000  Uiso   1.00
C477   C     0.16643   0.83915   0.01420   0.00000  Uiso   1.00
C478   C     0.16725   0.81972   0.98297   0.00000  Uiso   1.00
C479   C     0.15840   0.82931   0.93285   0.00000  Uiso   1.00
C480   C     0.14830   0.85871   0.91127   0.00000  Uiso   1.00
H481   H     0.17108   0.76171   0.65446   0.00000  Uiso   1.00
H482   H     0.21409   0.85900   0.66971   0.00000  Uiso   1.00
H483   H     0.19838   0.87587   0.58143   0.00000  Uiso   1.00
H484   H     0.15461   0.77886   0.56642   0.00000  Uiso   1.00
H485   H     0.25547   0.78775   0.83497   0.00000  Uiso   1.00
H486   H     0.31504   0.80157   0.86355   0.00000  Uiso   1.00
H487   H     0.32414   0.83921   0.71597   0.00000  Uiso   1.00
H488   H     0.26451   0.82688   0.68747   0.00000  Uiso   1.00
H489   H     0.13997   0.80763   0.72219   0.00000  Uiso   1.00
H490   H     0.11219   0.83388   0.75940   0.00000  Uiso   1.00
H491   H     0.20404   0.86231   0.85848   0.00000  Uiso   1.00
H492   H     0.23188   0.83664   0.82068   0.00000  Uiso   1.00
H493   H     0.02362   0.84779   0.85648   0.00000  Uiso   1.00
H494   H     0.08012   0.83170   0.89110   0.00000  Uiso   1.00
H495   H     0.08787   0.88571   0.74788   0.00000  Uiso   1.00
H496   H     0.03070   0.86090   0.71265   0.00000  Uiso   1.00
H497   H     0.19774   0.91659   0.82654   0.00000  Uiso   1.00
H498   H     0.21361   0.97433   0.80476   0.00000  Uiso   1.00
H499   H     0.11510   0.98451   0.79576   0.00000  Uiso   1.00
H500   H     0.09924   0.92679   0.81871   0.00000  Uiso   1.00
H501   H     0.13997   0.90087   0.92856   0.00000  Uiso   1.00
H502   H     0.15515   0.88384   0.01689   0.00000  Uiso   1.00
H503   H     0.17539   0.79707  -0.00196   0.00000  Uiso   1.00
H504   H     0.15945   0.81357   0.90980   0.00000  Uiso   1.00
C505   C     0.85800   0.66347   0.82617   0.00000  Uiso   1.00
C506   C     0.88950   0.67637   0.81793   0.00000  Uiso   1.00
C507   C     0.89930   0.70907   0.80462   0.00000  Uiso   1.00
C508   C     0.87838   0.73051   0.79929   0.00000  Uiso   1.00
C509   C     0.84687   0.71700   0.80812   0.00000  Uiso   1.00
C510   C     0.83680   0.68432   0.82101   0.00000  Uiso   1.00
H511   H     0.90629   0.66062   0.82125   0.00000  Uiso   1.00
H512   H     0.92392   0.71824   0.79819   0.00000  Uiso   1.00
H513   H     0.82979   0.73248   0.80489   0.00000  Uiso   1.00
H514   H     0.81238   0.67487   0.82792   0.00000  Uiso   1.00
C515   C     0.86297   0.76388   0.67993   0.00000  Uiso   1.00
C516   C     0.87741   0.78649   0.71043   0.00000  Uiso   1.00
C517   C     0.88113   0.81885   0.68737   0.00000  Uiso   1.00
C518   C     0.87141   0.82799   0.63729   0.00000  Uiso   1.00
C519   C     0.85721   0.80510   0.60757   0.00000  Uiso   1.00
C520   C     0.85304   0.77287   0.62980   0.00000  Uiso   1.00
Si521  Si    0.89165   0.77521   0.77922   0.00000  Uiso   1.00
C522   C     0.93829   0.78618   0.79916   0.00000  Uiso   1.00
C523   C     0.95367   0.77607   0.84951   0.00000  Uiso   1.00
C524   C     0.98642   0.78830   0.86936   0.00000  Uiso   1.00
C525   C     1.00680   0.80388   0.83822   0.00000  Uiso   1.00
C526   C     0.99370   0.81120   0.78418   0.00000  Uiso   1.00
C527   C     0.95736   0.80491   0.76797   0.00000  Uiso   1.00
C528   C     0.83819   0.80009   0.78919   0.00000  Uiso   1.00
C529   C     0.82221   0.81480   0.81064   0.00000  Uiso   1.00
C530   C     0.83847   0.82804   0.85249   0.00000  Uiso   1.00
C531   C     0.87193   0.82584   0.87107   0.00000  Uiso   1.00
C532   C     0.88788   0.81106   0.84969   0.00000  Uiso   1.00
C533   C     0.87151   0.79748   0.80819   0.00000  Uiso   1.00
Si534  Si    0.81693   0.84822   0.88249   0.00000  Uiso   1.00
C535   C     0.70111   0.81803   0.82793   0.00000  Uiso   1.00
C536   C     0.71868   0.80015   0.86912   0.00000  Uiso   1.00
C537   C     0.75246   0.80924   0.88497   0.00000  Uiso   1.00
C538   C     0.77053   0.83646   0.86058   0.00000  Uiso   1.00
C539   C     0.75247   0.85385   0.81878   0.00000  Uiso   1.00
C540   C     0.71867   0.84501   0.80292   0.00000  Uiso   1.00
C541   C     0.82980   0.89331   0.86641   0.00000  Uiso   1.00
C542   C     0.86066   0.90761   0.85568   0.00000  Uiso   1.00
C543   C     0.87032   0.94044   0.84423   0.00000  Uiso   1.00
C544   C     0.84941   0.96083   0.84256   0.00000  Uiso   1.00
C545   C     0.81875   0.94710   0.85356   0.00000  Uiso   1.00
C546   C     0.80934   0.91425   0.86533   0.00000  Uiso   1.00
C547   C     0.82693   0.85316   0.98327   0.00000  Uiso   1.00
C548   C     0.83562   0.84369   0.03342   0.00000  Uiso   1.00
C549   C     0.84732   0.81520   0.05418   0.00000  Uiso   1.00
C550   C     0.84963   0.79646   0.02297   0.00000  Uiso   1.00
C551   C     0.84076   0.80602   0.97285   0.00000  Uiso   1.00
C552   C     0.82930   0.83476   0.95121   0.00000  Uiso   1.00
H553   H     0.85933   0.73857   0.69584   0.00000  Uiso   1.00
H554   H     0.89192   0.83733   0.70933   0.00000  Uiso   1.00
H555   H     0.87530   0.85319   0.62100   0.00000  Uiso   1.00
H556   H     0.84152   0.75460   0.60773   0.00000  Uiso   1.00
H557   H     0.93855   0.76031   0.87337   0.00000  Uiso   1.00
H558   H     0.99583   0.78472   0.90864   0.00000  Uiso   1.00
H559   H     0.00297   0.79778   0.76486   0.00000  Uiso   1.00
H560   H     0.94666   0.81396   0.73009   0.00000  Uiso   1.00
H561   H     0.82445   0.79036   0.75674   0.00000  Uiso   1.00
H562   H     0.79639   0.81598   0.79456   0.00000  Uiso   1.00
H563   H     0.88577   0.83580   0.90327   0.00000  Uiso   1.00
H564   H     0.91373   0.80999   0.86570   0.00000  Uiso   1.00
H565   H     0.70586   0.77873   0.88877   0.00000  Uiso   1.00
H566   H     0.76521   0.79480   0.91732   0.00000  Uiso   1.00
H567   H     0.76518   0.87497   0.79827   0.00000  Uiso   1.00
H568   H     0.70568   0.85960   0.77115   0.00000  Uiso   1.00
H569   H     0.87759   0.89264   0.85619   0.00000  Uiso   1.00
H570   H     0.89457   0.95034   0.83688   0.00000  Uiso   1.00
H571   H     0.80178   0.96224   0.85207   0.00000  Uiso   1.00
H572   H     0.78528   0.90459   0.87359   0.00000  Uiso   1.00
H573   H     0.81807   0.87554   0.96850   0.00000  Uiso   1.00
H574   H     0.83300   0.85845   0.05673   0.00000  Uiso   1.00
H575   H     0.85901   0.77442   0.03802   0.00000  Uiso   1.00
H576   H     0.84299   0.79079   0.94986   0.00000  Uiso   1.00
C577   C     0.52032   0.00776   0.30940   0.00000  Uiso   1.00
C578   C     0.53921   0.02079   0.27455   0.00000  Uiso   1.00
C579   C     0.54805   0.05354   0.26079   0.00000  Uiso   1.00
C580   C     0.53823   0.07510   0.28044   0.00000  Uiso   1.00
C581   C     0.51950   0.06155   0.31568   0.00000  Uiso   1.00
C582   C     0.51086   0.02879   0.33000   0.00000  Uiso   1.00
H583   H     0.54668   0.00515   0.25746   0.00000  Uiso   1.00
H584   H     0.56298   0.06270   0.23389   0.00000  Uiso   1.00
H585   H     0.51148   0.07705   0.33241   0.00000  Uiso   1.00
H586   H     0.49684   0.01947   0.35793   0.00000  Uiso   1.00
C587   C     0.51853   0.10885   0.15982   0.00000  Uiso   1.00
C588   C     0.53482   0.13099   0.19059   0.00000  Uiso   1.00
C589   C     0.54004   0.16339   0.16784   0.00000  Uiso   1.00
C590   C     0.53026   0.17295   0.11785   0.00000  Uiso   1.00
C591   C     0.51458   0.15046   0.08783   0.00000  Uiso   1.00
C592   C     0.50866   0.11825   0.10976   0.00000  Uiso   1.00
Si593  Si    0.55034   0.11983   0.25924   0.00000  Uiso   1.00
C594   C     0.59699   0.13160   0.27603   0.00000  Uiso   1.00
C595   C     0.61423   0.12160   0.32478   0.00000  Uiso   1.00
C596   C     0.64749   0.13072   0.33700   0.00000  Uiso   1.00
C597   C     0.66700   0.14923   0.30597   0.00000  Uiso   1.00
C598   C     0.65025   0.15878   0.25753   0.00000  Uiso   1.00
C599   C     0.61630   0.15007   0.24361   0.00000  Uiso   1.00
C600   C     0.49705   0.14229   0.27357   0.00000  Uiso   1.00
C601   C     0.48135   0.15723   0.29509   0.00000  Uiso   1.00
C602   C     0.49848   0.17258   0.33460   0.00000  Uiso   1.00
C603   C     0.53242   0.17207   0.35090   0.00000  Uiso   1.00
C604   C     0.54815   0.15726   0.32921   0.00000  Uiso   1.00
C605   C     0.53099   0.14174   0.28991   0.00000  Uiso   1.00
Si606  Si    0.47745   0.19343   0.36434   0.00000  Uiso   1.00
C607   C     0.36146   0.16467   0.30942   0.00000  Uiso   1.00
C608   C     0.37892   0.14555   0.34902   0.00000  Uiso   1.00
C609   C     0.41274   0.15414   0.36508   0.00000  Uiso   1.00
C610   C     0.43096   0.18210   0.34251   0.00000  Uiso   1.00
C611   C     0.41297   0.20083   0.30242   0.00000  Uiso   1.00
C612   C     0.37914   0.19247   0.28632   0.00000  Uiso   1.00
C613   C     0.49005   0.23851   0.34769   0.00000  Uiso   1.00
C614   C     0.51851   0.25357   0.33027   0.00000  Uiso   1.00
C615   C     0.52734   0.28652   0.31913   0.00000  Uiso   1.00
C616   C     0.50801   0.30619   0.32484   0.00000  Uiso   1.00
C617   C     0.47964   0.29169   0.34227   0.00000  Uiso   1.00
C618   C     0.47100   0.25875   0.35340   0.00000  Uiso   1.00
C619   C     0.49084   0.20035   0.46522   0.00000  Uiso   1.00
C620   C     0.49914   0.19073   0.51537   0.00000  Uiso   1.00
C621   C     0.50680   0.16047   0.53613   0.00000  Uiso   1.00
C622   C     0.50576   0.14024   0.50495   0.00000  Uiso   1.00
C623   C     0.49748   0.15004   0.45482   0.00000  Uiso   1.00
C624   C     0.48977   0.18043   0.43317   0.00000  Uiso   1.00
H625   H     0.51334   0.08357   0.17536   0.00000  Uiso   1.00
H626   H     0.55211   0.18159   0.18998   0.00000  Uiso   1.00
H627   H     0.53536   0.19813   0.10183   0.00000  Uiso   1.00
H628   H     0.49585   0.10033   0.08748   0.00000  Uiso   1.00
H629   H     0.60066   0.10680   0.35133   0.00000  Uiso   1.00
H630   H     0.66384   0.17295   0.23065   0.00000  Uiso   1.00
H631   H     0.60434   0.15795   0.20580   0.00000  Uiso   1.00
H632   H     0.48261   0.13070   0.24316   0.00000  Uiso   1.00
H633   H     0.45509   0.15691   0.28096   0.00000  Uiso   1.00
H634   H     0.54683   0.18350   0.38147   0.00000  Uiso   1.00
H635   H     0.57444   0.15771   0.34320   0.00000  Uiso   1.00
H636   H     0.36596   0.12354   0.36718   0.00000  Uiso   1.00
H637   H     0.42541   0.13871   0.39613   0.00000  Uiso   1.00
H638   H     0.42577   0.22264   0.28345   0.00000  Uiso   1.00
H639   H     0.36624   0.20803   0.25590   0.00000  Uiso   1.00
H640   H     0.53418   0.23915   0.32519   0.00000  Uiso   1.00
H641   H     0.54976   0.29710   0.30635   0.00000  Uiso   1.00
H642   H     0.46386   0.30632   0.34638   0.00000  Uiso   1.00
H643   H     0.44866   0.24841   0.36660   0.00000  Uiso   1.00
H644   H     0.48508   0.22409   0.45051   0.00000  Uiso   1.00
H645   H     0.49931   0.20677   0.53871   0.00000  Uiso   1.00
H646   H     0.51205   0.11679   0.52008   0.00000  Uiso   1.00
H647   H     0.49717   0.13371   0.43178   0.00000  Uiso   1.00
C648   C     0.17615   0.01836   0.28604   0.00000  Uiso   1.00
C649   C     0.20036   0.03142   0.25929   0.00000  Uiso   1.00
C650   C     0.20968   0.06419   0.24646   0.00000  Uiso   1.00
C651   C     0.19539   0.08563   0.25952   0.00000  Uiso   1.00
C652   C     0.17122   0.07200   0.28656   0.00000  Uiso   1.00
C653   C     0.16175   0.03922   0.29951   0.00000  Uiso   1.00
H654   H     0.21165   0.01577   0.24783   0.00000  Uiso   1.00
H655   H     0.22861   0.07350   0.22569   0.00000  Uiso   1.00
H656   H     0.15951   0.08743   0.29786   0.00000  Uiso   1.00
H657   H     0.14328   0.02971   0.32095   0.00000  Uiso   1.00
C658   C     0.17929   0.11974   0.14011   0.00000  Uiso   1.00
C659   C     0.19552   0.14184   0.17098   0.00000  Uiso   1.00
C660   C     0.20152   0.17418   0.14825   0.00000  Uiso   1.00
C661   C     0.19220   0.18378   0.09820   0.00000  Uiso   1.00
C662   C     0.17625   0.16137   0.06813   0.00000  Uiso   1.00
C663   C     0.16988   0.12918   0.08999   0.00000  Uiso   1.00
Si664  Si    0.20903   0.13032   0.23989   0.00000  Uiso   1.00
C665   C     0.25567   0.14078   0.25982   0.00000  Uiso   1.00
C666   C     0.27158   0.13361   0.30943   0.00000  Uiso   1.00
C667   C     0.30549   0.14115   0.32549   0.00000  Uiso   1.00
C668   C     0.32540   0.15609   0.29251   0.00000  Uiso   1.00
C669   C     0.31011   0.16291   0.24301   0.00000  Uiso   1.00
C670   C     0.27616   0.15548   0.22723   0.00000  Uiso   1.00
C671   C     0.15452   0.15250   0.25000   0.00000  Uiso   1.00
C672   C     0.13735   0.16666   0.27033   0.00000  Uiso   1.00
C673   C     0.15275   0.18152   0.31086   0.00000  Uiso   1.00
C674   C     0.18666   0.18142   0.32923   0.00000  Uiso   1.00
C675   C     0.20391   0.16742   0.30872   0.00000  Uiso   1.00
C676   C     0.18840   0.15226   0.26859   0.00000  Uiso   1.00
Si677  Si    0.12940   0.20093   0.33945   0.00000  Uiso   1.00
C678   C     0.02120   0.15419   0.27564   0.00000  Uiso   1.00
C679   C     0.03553   0.14501   0.32583   0.00000  Uiso   1.00
C680   C     0.06683   0.15940   0.34743   0.00000  Uiso   1.00
C681   C     0.08380   0.18451   0.31754   0.00000  Uiso   1.00
C682   C     0.06790   0.19413   0.26839   0.00000  Uiso   1.00
C683   C     0.03636   0.17927   0.24619   0.00000  Uiso   1.00
C684   C     0.13961   0.24605   0.32042   0.00000  Uiso   1.00
C685   C     0.17210   0.26131   0.31799   0.00000  Uiso   1.00
C686   C     0.18082   0.29414   0.30526   0.00000  Uiso   1.00
C687   C     0.15733   0.31356   0.29420   0.00000  Uiso   1.00
C688   C     0.12494   0.29893   0.29662   0.00000  Uiso   1.00
C689   C     0.11639   0.26602   0.30940   0.00000  Uiso   1.00
C690   C     0.14298   0.20922   0.43994   0.00000  Uiso   1.00
C691   C     0.15220   0.20029   0.49016   0.00000  Uiso   1.00
C692   C     0.16174   0.17084   0.51144   0.00000  Uiso   1.00
C693   C     0.16163   0.15068   0.48068   0.00000  Uiso   1.00
C694   C     0.15235   0.15973   0.43052   0.00000  Uiso   1.00
C695   C     0.14277   0.18932   0.40835   0.00000  Uiso   1.00
H696   H     0.17379   0.09448   0.15568   0.00000  Uiso   1.00
H697   H     0.21382   0.19230   0.17047   0.00000  Uiso   1.00
H698   H     0.19779   0.20891   0.08219   0.00000  Uiso   1.00
H699   H     0.15700   0.11133   0.06763   0.00000  Uiso   1.00
H700   H     0.25698   0.12179   0.33618   0.00000  Uiso   1.00
H701   H     0.31660   0.13577   0.36421   0.00000  Uiso   1.00
H702   H     0.32495   0.17382   0.21640   0.00000  Uiso   1.00
H703   H     0.26529   0.16123   0.18843   0.00000  Uiso   1.00
H704   H     0.14128   0.14127   0.21875   0.00000  Uiso   1.00
H705   H     0.11120   0.16598   0.25441   0.00000  Uiso   1.00
H706   H     0.19989   0.19244   0.36067   0.00000  Uiso   1.00
H707   H     0.23010   0.16823   0.32443   0.00000  Uiso   1.00
H708   H    -0.00264   0.10727   0.40519   0.00000  Uiso   1.00
H709   H     0.07822   0.15175   0.38553   0.00000  Uiso   1.00
H710   H     0.08093   0.21387   0.24596   0.00000  Uiso   1.00
H711   H     0.02555   0.18724   0.20800   0.00000  Uiso   1.00
H712   H     0.19112   0.24709   0.32627   0.00000  Uiso   1.00
H713   H     0.20628   0.30488   0.30448   0.00000  Uiso   1.00
H714   H     0.10611   0.31338   0.28769   0.00000  Uiso   1.00
H715   H     0.09092   0.25553   0.31070   0.00000  Uiso   1.00
H716   H     0.13575   0.23232   0.42475   0.00000  Uiso   1.00
H717   H     0.15161   0.21624   0.51315   0.00000  Uiso   1.00
H718   H     0.16940   0.12788   0.49614   0.00000  Uiso   1.00
H719   H     0.15271   0.14344   0.40785   0.00000  Uiso   1.00
C720   C     0.51699   0.34125   0.31255   0.00000  Uiso   1.00
C721   C     0.53138   0.35606   0.27308   0.00000  Uiso   1.00
C722   C     0.53934   0.38902   0.26132   0.00000  Uiso   1.00
C723   C     0.53336   0.40900   0.28806   0.00000  Uiso   1.00
C724   C     0.51900   0.39362   0.32770   0.00000  Uiso   1.00
C725   C     0.51104   0.36065   0.33976   0.00000  Uiso   1.00
H726   H     0.53587   0.34165   0.25083   0.00000  Uiso   1.00
H727   H     0.55033   0.39961   0.23017   0.00000  Uiso   1.00
H728   H     0.51376   0.40777   0.34969   0.00000  Uiso   1.00
H729   H     0.50037   0.34985   0.37108   0.00000  Uiso   1.00
C730   C     0.50363   0.44920   0.17420   0.00000  Uiso   1.00
C731   C     0.53187   0.46616   0.20175   0.00000  Uiso   1.00
C732   C     0.54913   0.49326   0.17589   0.00000  Uiso   1.00
C733   C     0.53902   0.50275   0.12592   0.00000  Uiso   1.00
C734   C     0.51103   0.48540   0.09922   0.00000  Uiso   1.00
C735   C     0.49345   0.45846   0.12419   0.00000  Uiso   1.00
Si736  Si    0.54505   0.45418   0.27059   0.00000  Uiso   1.00
C737   C     0.59160   0.46677   0.29002   0.00000  Uiso   1.00
C738   C     0.60785   0.48355   0.32820   0.00000  Uiso   1.00
C739   C     0.64192   0.49093   0.34221   0.00000  Uiso   1.00
C740   C     0.66145   0.48230   0.31798   0.00000  Uiso   1.00
C741   C     0.64588   0.46612   0.27931   0.00000  Uiso   1.00
C742   C     0.61183   0.45836   0.26607   0.00000  Uiso   1.00
C743   C     0.49902   0.49209   0.27287   0.00000  Uiso   1.00
C744   C     0.48287   0.50635   0.29469   0.00000  Uiso   1.00
C745   C     0.49003   0.50400   0.34560   0.00000  Uiso   1.00
C746   C     0.51431   0.48617   0.37314   0.00000  Uiso   1.00
C747   C     0.53018   0.47157   0.35137   0.00000  Uiso   1.00
C748   C     0.52325   0.47415   0.30043   0.00000  Uiso   1.00
Si749  Si    0.46769   0.52512   0.37301   0.00000  Uiso   1.00
C750   C     0.35252   0.49483   0.31069   0.00000  Uiso   1.00
C751   C     0.36921   0.47657   0.35238   0.00000  Uiso   1.00
C752   C     0.40269   0.48572   0.37071   0.00000  Uiso   1.00
C753   C     0.42149   0.51336   0.34841   0.00000  Uiso   1.00
C754   C     0.40435   0.53112   0.30605   0.00000  Uiso   1.00
C755   C     0.37079   0.52227   0.28777   0.00000  Uiso   1.00
C756   C     0.48118   0.56994   0.35448   0.00000  Uiso   1.00
C757   C     0.51212   0.58304   0.34333   0.00000  Uiso   1.00
C758   C     0.52253   0.61566   0.33029   0.00000  Uiso   1.00
C759   C     0.50234   0.63701   0.32750   0.00000  Uiso   1.00
C760   C     0.47162   0.62449   0.33889   0.00000  Uiso   1.00
C761   C     0.46145   0.59186   0.35218   0.00000  Uiso   1.00
C762   C     0.49138   0.53579   0.47273   0.00000  Uiso   1.00
C763   C     0.50107   0.52690   0.52291   0.00000  Uiso   1.00
C764   C     0.49884   0.49469   0.54490   0.00000  Uiso   1.00
C765   C     0.48638   0.47172   0.51512   0.00000  Uiso   1.00
C766   C     0.47695   0.48079   0.46498   0.00000  Uiso   1.00
C767   C     0.47920   0.51312   0.44199   0.00000  Uiso   1.00
H768   H     0.48929   0.42817   0.19243   0.00000  Uiso   1.00
H769   H     0.57115   0.50720   0.19542   0.00000  Uiso   1.00
H770   H     0.55331   0.52353   0.10724   0.00000  Uiso   1.00
H771   H     0.47136   0.44487   0.10435   0.00000  Uiso   1.00
H772   H     0.59358   0.49117   0.34751   0.00000  Uiso   1.00
H773   H     0.65352   0.50399   0.37183   0.00000  Uiso   1.00
H774   H     0.66060   0.45906   0.26011   0.00000  Uiso   1.00
H775   H     0.60055   0.44543   0.23615   0.00000  Uiso   1.00
H776   H     0.49261   0.49488   0.23334   0.00000  Uiso   1.00
H777   H     0.46419   0.51979   0.27161   0.00000  Uiso   1.00
H778   H     0.52102   0.48363   0.41262   0.00000  Uiso   1.00
H779   H     0.54848   0.45779   0.37466   0.00000  Uiso   1.00
H780   H     0.35594   0.45477   0.37054   0.00000  Uiso   1.00
H781   H     0.41454   0.47091   0.40342   0.00000  Uiso   1.00
H782   H     0.41756   0.55261   0.28700   0.00000  Uiso   1.00
H783   H     0.35858   0.53723   0.25568   0.00000  Uiso   1.00
H784   H     0.52850   0.56725   0.34484   0.00000  Uiso   1.00
H785   H     0.54679   0.62465   0.32265   0.00000  Uiso   1.00
H786   H     0.45523   0.64041   0.33656   0.00000  Uiso   1.00
H787   H     0.43740   0.58311   0.36080   0.00000  Uiso   1.00
H788   H     0.49346   0.56109   0.45697   0.00000  Uiso   1.00
H789   H     0.51018   0.54517   0.54533   0.00000  Uiso   1.00
H790   H     0.48471   0.44654   0.53130   0.00000  Uiso   1.00
H791   H     0.46780   0.46221   0.44305   0.00000  Uiso   1.00
C792   C     0.16677   0.34851   0.28029   0.00000  Uiso   1.00
C793   C     0.18985   0.36174   0.25163   0.00000  Uiso   1.00
C794   C     0.19915   0.39452   0.23906   0.00000  Uiso   1.00
C795   C     0.18594   0.41584   0.25425   0.00000  Uiso   1.00
C796   C     0.16273   0.40206   0.28289   0.00000  Uiso   1.00
C797   C     0.15330   0.36924   0.29561   0.00000  Uiso   1.00
H798   H     0.20034   0.34620   0.23858   0.00000  Uiso   1.00
H799   H     0.21727   0.40393   0.21689   0.00000  Uiso   1.00
H800   H     0.15182   0.41740   0.29575   0.00000  Uiso   1.00
H801   H     0.13565   0.35961   0.31841   0.00000  Uiso   1.00
C802   C     0.17032   0.45152   0.13527   0.00000  Uiso   1.00
C803   C     0.18746   0.47290   0.16694   0.00000  Uiso   1.00
C804   C     0.19499   0.50529   0.14514   0.00000  Uiso   1.00
C805   C     0.18636   0.51557   0.09517   0.00000  Uiso   1.00
C806   C     0.16959   0.49384   0.06428   0.00000  Uiso   1.00
C807   C     0.16160   0.46165   0.08522   0.00000  Uiso   1.00
Si808  Si    0.20054   0.46048   0.23571   0.00000  Uiso   1.00
C809   C     0.24723   0.46994   0.25634   0.00000  Uiso   1.00
C810   C     0.26228   0.46270   0.30632   0.00000  Uiso   1.00
C811   C     0.29602   0.47054   0.32379   0.00000  Uiso   1.00
C812   C     0.31669   0.48576   0.29195   0.00000  Uiso   1.00
C813   C     0.30229   0.49235   0.24207   0.00000  Uiso   1.00
C814   C     0.26846   0.48473   0.22488   0.00000  Uiso   1.00
C815   C     0.14778   0.48382   0.25037   0.00000  Uiso   1.00
C816   C     0.13276   0.49975   0.27140   0.00000  Uiso   1.00
C817   C     0.15063   0.51633   0.30929   0.00000  Uiso   1.00
C818   C     0.18462   0.51593   0.32444   0.00000  Uiso   1.00
C819   C     0.19969   0.50022   0.30315   0.00000  Uiso   1.00
C820   C     0.18178   0.48342   0.26558   0.00000  Uiso   1.00
Si821  Si    0.13097   0.53809   0.33976   0.00000  Uiso   1.00
C822   C     0.01585   0.50935   0.28141   0.00000  Uiso   1.00
C823   C     0.02912   0.50232   0.33544   0.00000  Uiso   1.00
C824   C     0.06548   0.50867   0.35129   0.00000  Uiso   1.00
C825   C     0.08434   0.52737   0.31978   0.00000  Uiso   1.00
C826   C     0.06878   0.53722   0.26942   0.00000  Uiso   1.00
C827   C     0.03604   0.52476   0.24995   0.00000  Uiso   1.00
C828   C     0.14423   0.58306   0.32213   0.00000  Uiso   1.00
C829   C     0.17689   0.59722   0.31927   0.00000  Uiso   1.00
C830   C     0.18682   0.62998   0.30733   0.00000  Uiso   1.00
C831   C     0.16444   0.65040   0.29759   0.00000  Uiso   1.00
C832   C     0.13190   0.63686   0.30042   0.00000  Uiso   1.00
C833   C     0.12214   0.60405   0.31237   0.00000  Uiso   1.00
C834   C     0.14412   0.54459   0.44057   0.00000  Uiso   1.00
C835   C     0.15275   0.53502   0.49072   0.00000  Uiso   1.00
C836   C     0.16229   0.50551   0.51136   0.00000  Uiso   1.00
C837   C     0.16293   0.48603   0.48008   0.00000  Uiso   1.00
C838   C     0.15426   0.49574   0.42997   0.00000  Uiso   1.00
C839   C     0.14457   0.52533   0.40845   0.00000  Uiso   1.00
H840   H     0.16358   0.42629   0.15011   0.00000  Uiso   1.00
H841   H     0.20800   0.52288   0.16803   0.00000  Uiso   1.00
H842   H     0.19315   0.54068   0.07987   0.00000  Uiso   1.00
H843   H     0.14802   0.44436   0.06217   0.00000  Uiso   1.00
H844   H     0.24710   0.45065   0.33224   0.00000  Uiso   1.00
H845   H     0.30635   0.46525   0.36276   0.00000  Uiso   1.00
H846   H     0.31771   0.50337   0.21626   0.00000  Uiso   1.00
H847   H     0.25829   0.49046   0.18585   0.00000  Uiso   1.00
H848   H     0.13274   0.47133   0.22122   0.00000  Uiso   1.00
H849   H     0.10641   0.49920   0.25815   0.00000  Uiso   1.00
H850   H     0.19967   0.52815   0.35386   0.00000  Uiso   1.00
H851   H     0.22608   0.50101   0.31621   0.00000  Uiso   1.00
H852   H     0.01996   0.51591   0.35463   0.00000  Uiso   1.00
H853   H     0.07642   0.49970   0.38911   0.00000  Uiso   1.00
H854   H     0.08380   0.55281   0.24528   0.00000  Uiso   1.00
H855   H     0.02647   0.52805   0.21071   0.00000  Uiso   1.00
H856   H     0.19509   0.58221   0.32656   0.00000  Uiso   1.00
H857   H     0.21238   0.63985   0.30613   0.00000  Uiso   1.00
H858   H     0.11387   0.65210   0.29241   0.00000  Uiso   1.00
H859   H     0.09656   0.59446   0.31396   0.00000  Uiso   1.00
H860   H     0.13680   0.56770   0.42584   0.00000  Uiso   1.00
H861   H     0.15164   0.55046   0.51414   0.00000  Uiso   1.00
H862   H     0.17075   0.46322   0.49511   0.00000  Uiso   1.00
H863   H     0.15514   0.47995   0.40687   0.00000  Uiso   1.00
C864   C     0.86192   0.32881   0.32386   0.00000  Uiso   1.00
C865   C     0.88712   0.34392   0.29963   0.00000  Uiso   1.00
C866   C     0.89420   0.37689   0.28708   0.00000  Uiso   1.00
C867   C     0.87664   0.39655   0.29782   0.00000  Uiso   1.00
C868   C     0.85132   0.38092   0.32210   0.00000  Uiso   1.00
C869   C     0.84413   0.34799   0.33470   0.00000  Uiso   1.00
H870   H     0.90136   0.32999   0.29019   0.00000  Uiso   1.00
H871   H     0.91405   0.38781   0.26840   0.00000  Uiso   1.00
H872   H     0.83699   0.39492   0.33134   0.00000  Uiso   1.00
H873   H     0.82443   0.33636   0.35341   0.00000  Uiso   1.00
C874   C     0.86110   0.43163   0.17853   0.00000  Uiso   1.00
C875   C     0.87404   0.45364   0.21024   0.00000  Uiso   1.00
C876   C     0.87706   0.48622   0.18844   0.00000  Uiso   1.00
C877   C     0.86811   0.49616   0.13842   0.00000  Uiso   1.00
C878   C     0.85553   0.47385   0.10750   0.00000  Uiso   1.00
C879   C     0.85205   0.44140   0.12844   0.00000  Uiso   1.00
Si880  Si    0.88799   0.44152   0.27897   0.00000  Uiso   1.00
C881   C     0.93461   0.45356   0.29844   0.00000  Uiso   1.00
C882   C     0.95013   0.44384   0.34885   0.00000  Uiso   1.00
C883   C     0.98284   0.45634   0.36841   0.00000  Uiso   1.00
C884   C     0.00304   0.47178   0.33702   0.00000  Uiso   1.00
C885   C    -0.01016   0.47876   0.28300   0.00000  Uiso   1.00
C886   C     0.95350   0.47221   0.26696   0.00000  Uiso   1.00
C887   C     0.83325   0.46158   0.29415   0.00000  Uiso   1.00
C888   C     0.81729   0.47663   0.31512   0.00000  Uiso   1.00
C889   C     0.83444   0.49379   0.35259   0.00000  Uiso   1.00
C890   C     0.86865   0.49454   0.36787   0.00000  Uiso   1.00
C891   C     0.88462   0.47951   0.34692   0.00000  Uiso   1.00
C892   C     0.86748   0.46252   0.30926   0.00000  Uiso   1.00
Si893  Si    0.81413   0.51557   0.38211   0.00000  Uiso   1.00
C894   C     0.69771   0.49004   0.33312   0.00000  Uiso   1.00
C895   C     0.71364   0.48462   0.38243   0.00000  Uiso   1.00
C896   C     0.74771   0.49165   0.39675   0.00000  Uiso   1.00
C897   C     0.76748   0.50488   0.36279   0.00000  Uiso   1.00
C898   C     0.75084   0.51046   0.31330   0.00000  Uiso   1.00
C899   C     0.71682   0.50296   0.29866   0.00000  Uiso   1.00
C900   C     0.82723   0.56055   0.36378   0.00000  Uiso   1.00
C901   C     0.86074   0.57506   0.36952   0.00000  Uiso   1.00
C902   C     0.87076   0.60777   0.35703   0.00000  Uiso   1.00
C903   C     0.84759   0.62778   0.33825   0.00000  Uiso   1.00
C904   C     0.81420   0.61391   0.33242   0.00000  Uiso   1.00
C905   C     0.80436   0.58114   0.34481   0.00000  Uiso   1.00
C906   C     0.82682   0.52292   0.48249   0.00000  Uiso   1.00
C907   C     0.83515   0.51364   0.53272   0.00000  Uiso   1.00
C908   C     0.84482   0.48424   0.55397   0.00000  Uiso   1.00
C909   C     0.84596   0.46461   0.52323   0.00000  Uiso   1.00
C910   C     0.83759   0.47404   0.47305   0.00000  Uiso   1.00
C911   C     0.82771   0.50348   0.45091   0.00000  Uiso   1.00
H912   H     0.85796   0.40617   0.19340   0.00000  Uiso   1.00
H913   H     0.88669   0.50425   0.21137   0.00000  Uiso   1.00
H914   H     0.87139   0.52152   0.12313   0.00000  Uiso   1.00
H915   H     0.84174   0.42357   0.10536   0.00000  Uiso   1.00
H916   H     0.93510   0.42817   0.37292   0.00000  Uiso   1.00
H917   H    -0.00764   0.45306   0.40766   0.00000  Uiso   1.00
H918   H    -0.00083   0.46524   0.26391   0.00000  Uiso   1.00
H919   H     0.94267   0.48095   0.22901   0.00000  Uiso   1.00
H920   H     0.81878   0.44879   0.26507   0.00000  Uiso   1.00
H921   H     0.79079   0.47491   0.30205   0.00000  Uiso   1.00
H922   H     0.88317   0.50716   0.39710   0.00000  Uiso   1.00
H923   H     0.91110   0.48101   0.36015   0.00000  Uiso   1.00
H924   H     0.69923   0.47433   0.40973   0.00000  Uiso   1.00
H925   H     0.75927   0.48679   0.43541   0.00000  Uiso   1.00
H926   H     0.76490   0.52109   0.28555   0.00000  Uiso   1.00
H927   H     0.70488   0.50771   0.26018   0.00000  Uiso   1.00
H928   H     0.87955   0.56036   0.38429   0.00000  Uiso   1.00
H929   H     0.89689   0.61796   0.36258   0.00000  Uiso   1.00
H930   H     0.79568   0.62886   0.31735   0.00000  Uiso   1.00
H931   H     0.77814   0.57130   0.33954   0.00000  Uiso   1.00
H932   H     0.81937   0.54593   0.46726   0.00000  Uiso   1.00
H933   H     0.83368   0.52919   0.55571   0.00000  Uiso   1.00
H934   H     0.85392   0.44191   0.53877   0.00000  Uiso   1.00
H935   H     0.83883   0.45812   0.45039   0.00000  Uiso   1.00
C936   C     0.51303   0.67170   0.31262   0.00000  Uiso   1.00
C937   C     0.53240   0.68367   0.27824   0.00000  Uiso   1.00
C938   C     0.54229   0.71624   0.26408   0.00000  Uiso   1.00
C939   C     0.53319   0.73865   0.28298   0.00000  Uiso   1.00
C940   C     0.51385   0.72615   0.31761   0.00000  Uiso   1.00
C941   C     0.50406   0.69356   0.33221   0.00000  Uiso   1.00
H942   H     0.53943   0.66732   0.26190   0.00000  Uiso   1.00
H943   H     0.55751   0.72460   0.23751   0.00000  Uiso   1.00
H944   H     0.50629   0.74234   0.33366   0.00000  Uiso   1.00
H945   H     0.48959   0.68502   0.35965   0.00000  Uiso   1.00
C946   C     0.51497   0.77324   0.16240   0.00000  Uiso   1.00
C947   C     0.53340   0.79468   0.19338   0.00000  Uiso   1.00
C948   C     0.54153   0.82683   0.17086   0.00000  Uiso   1.00
C949   C     0.53235   0.83679   0.12088   0.00000  Uiso   1.00
C950   C     0.51442   0.81496   0.09066   0.00000  Uiso   1.00
C951   C     0.50574   0.78303   0.11232   0.00000  Uiso   1.00
Si952  Si    0.54766   0.78306   0.26216   0.00000  Uiso   1.00
C953   C     0.59445   0.79255   0.28057   0.00000  Uiso   1.00
C954   C     0.61074   0.78606   0.33011   0.00000  Uiso   1.00
C955   C     0.64470   0.79358   0.34550   0.00000  Uiso   1.00
C956   C     0.66430   0.80777   0.31188   0.00000  Uiso   1.00
C957   C     0.64865   0.81363   0.26242   0.00000  Uiso   1.00
C958   C     0.61464   0.80626   0.24731   0.00000  Uiso   1.00
C959   C     0.49535   0.80719   0.27583   0.00000  Uiso   1.00
C960   C     0.48008   0.82297   0.29673   0.00000  Uiso   1.00
C961   C     0.49760   0.83891   0.33547   0.00000  Uiso   1.00
C962   C     0.53151   0.83821   0.35147   0.00000  Uiso   1.00
C963   C     0.54683   0.82268   0.33024   0.00000  Uiso   1.00
C964   C     0.52925   0.80642   0.29192   0.00000  Uiso   1.00
Si965  Si    0.47708   0.86043   0.36502   0.00000  Uiso   1.00
C966   C     0.36118   0.83147   0.30920   0.00000  Uiso   1.00
C967   C     0.37847   0.81310   0.35009   0.00000  Uiso   1.00
C968   C     0.41223   0.82193   0.36649   0.00000  Uiso   1.00
C969   C     0.43059   0.84936   0.34298   0.00000  Uiso   1.00
C970   C     0.41278   0.86730   0.30158   0.00000  Uiso   1.00
C971   C     0.37900   0.85874   0.28518   0.00000  Uiso   1.00
C972   C     0.49063   0.90540   0.34829   0.00000  Uiso   1.00
C973   C     0.52093   0.91943   0.33556   0.00000  Uiso   1.00
C974   C     0.53072   0.95222   0.32368   0.00000  Uiso   1.00
C975   C     0.51047   0.97288   0.32349   0.00000  Uiso   1.00
C976   C     0.48035   0.95942   0.33643   0.00000  Uiso   1.00
C977   C     0.47085   0.92661   0.34869   0.00000  Uiso   1.00
C978   C     0.48957   0.86670   0.46602   0.00000  Uiso   1.00
C979   C     0.49777   0.85690   0.51615   0.00000  Uiso   1.00
C980   C     0.50606   0.82686   0.53674   0.00000  Uiso   1.00
C981   C     0.50574   0.80703   0.50539   0.00000  Uiso   1.00
C982   C     0.49756   0.81700   0.45528   0.00000  Uiso   1.00
C983   C     0.48925   0.84717   0.43382   0.00000  Uiso   1.00
H984   H     0.50762   0.74821   0.17779   0.00000  Uiso   1.00
H985   H     0.55547   0.84450   0.19319   0.00000  Uiso   1.00
H986   H     0.53964   0.86170   0.10501   0.00000  Uiso   1.00
H987   H     0.49125   0.76571   0.08981   0.00000  Uiso   1.00
H988   H     0.59640   0.77484   0.35738   0.00000  Uiso   1.00
H989   H     0.65607   0.78885   0.38419   0.00000  Uiso   1.00
H990   H     0.66322   0.82382   0.23531   0.00000  Uiso   1.00
H991   H     0.60350   0.81133   0.20852   0.00000  Uiso   1.00
H992   H     0.48058   0.79510   0.24611   0.00000  Uiso   1.00
H993   H     0.45383   0.82279   0.28277   0.00000  Uiso   1.00
H994   H     0.54624   0.85000   0.38150   0.00000  Uiso   1.00
H995   H     0.57314   0.82316   0.34394   0.00000  Uiso   1.00
H996   H     0.36545   0.79147   0.36902   0.00000  Uiso   1.00
H997   H     0.42475   0.80709   0.39855   0.00000  Uiso   1.00
H998   H     0.42569   0.88864   0.28177   0.00000  Uiso   1.00
H999   H     0.36625   0.87374   0.25373   0.00000  Uiso   1.00
H1000  H     0.53733   0.90429   0.33477   0.00000  Uiso   1.00
H1001  H     0.55456   0.96187   0.31479   0.00000  Uiso   1.00
H1002  H     0.46384   0.97472   0.33610   0.00000  Uiso   1.00
H1003  H     0.44722   0.91719   0.35850   0.00000  Uiso   1.00
H1004  H     0.48329   0.89024   0.45140   0.00000  Uiso   1.00
H1005  H     0.49735   0.87262   0.53962   0.00000  Uiso   1.00
H1006  H     0.51253   0.78376   0.52037   0.00000  Uiso   1.00
H1007  H     0.49781   0.80096   0.43214   0.00000  Uiso   1.00
C1008  C     0.17485   0.68527   0.28442   0.00000  Uiso   1.00
C1009  C     0.19765   0.69822   0.25522   0.00000  Uiso   1.00
C1010  C     0.20727   0.73096   0.24268   0.00000  Uiso   1.00
C1011  C     0.19468   0.75250   0.25840   0.00000  Uiso   1.00
C1012  C     0.17196   0.73899   0.28793   0.00000  Uiso   1.00
C1013  C     0.16223   0.70623   0.30065   0.00000  Uiso   1.00
H1014  H     0.20756   0.68250   0.24164   0.00000  Uiso   1.00
H1015  H     0.22508   0.74018   0.21998   0.00000  Uiso   1.00
H1016  H     0.16163   0.75450   0.30136   0.00000  Uiso   1.00
H1017  H     0.14494   0.69681   0.32404   0.00000  Uiso   1.00
C1018  C     0.17747   0.78724   0.13935   0.00000  Uiso   1.00
C1019  C     0.19512   0.80895   0.17027   0.00000  Uiso   1.00
C1020  C     0.20251   0.84118   0.14768   0.00000  Uiso   1.00
C1021  C     0.19327   0.85101   0.09767   0.00000  Uiso   1.00
C1022  C     0.17599   0.82895   0.06753   0.00000  Uiso   1.00
C1023  C     0.16813   0.79690   0.08927   0.00000  Uiso   1.00
Si1024 Si    0.20876   0.79714   0.23910   0.00000  Uiso   1.00
C1025  C     0.25545   0.80720   0.25888   0.00000  Uiso   1.00
C1026  C     0.27120   0.80059   0.30865   0.00000  Uiso   1.00
C1027  C     0.30508   0.80823   0.32493   0.00000  Uiso   1.00
C1028  C     0.32516   0.82266   0.29201   0.00000  Uiso   1.00
C1029  C     0.31005   0.82874   0.24235   0.00000  Uiso   1.00
C1030  C     0.27610   0.82127   0.22636   0.00000  Uiso   1.00
C1031  C     0.15493   0.81907   0.25259   0.00000  Uiso   1.00
C1032  C     0.13883   0.83400   0.27351   0.00000  Uiso   1.00
C1033  C     0.15569   0.85031   0.31208   0.00000  Uiso   1.00
C1034  C     0.18982   0.85073   0.32798   0.00000  Uiso   1.00
C1035  C     0.20597   0.83601   0.30681   0.00000  Uiso   1.00
C1036  C     0.18906   0.81947   0.26858   0.00000  Uiso   1.00
Si1037 Si    0.13454   0.87092   0.34213   0.00000  Uiso   1.00
C1038  C     0.01972   0.84055   0.28222   0.00000  Uiso   1.00
C1039  C     0.03268   0.83381   0.33632   0.00000  Uiso   1.00
C1040  C     0.06901   0.84044   0.35268   0.00000  Uiso   1.00
C1041  C     0.08803   0.85915   0.32136   0.00000  Uiso   1.00
C1042  C     0.07271   0.86859   0.27078   0.00000  Uiso   1.00
C1043  C     0.04010   0.85586   0.25102   0.00000  Uiso   1.00
C1044  C     0.14684   0.91604   0.32465   0.00000  Uiso   1.00
C1045  C     0.17985   0.93076   0.32497   0.00000  Uiso   1.00
C1046  C     0.18934   0.96355   0.31276   0.00000  Uiso   1.00
C1047  C     0.16614   0.98346   0.29958   0.00000  Uiso   1.00
C1048  C     0.13326   0.96937   0.29936   0.00000  Uiso   1.00
C1049  C     0.12395   0.93652   0.31156   0.00000  Uiso   1.00
C1050  C     0.14661   0.87722   0.44284   0.00000  Uiso   1.00
C1051  C     0.15536   0.86781   0.49301   0.00000  Uiso   1.00
C1052  C     0.16593   0.83878   0.51382   0.00000  Uiso   1.00
C1053  C     0.16739   0.81958   0.48267   0.00000  Uiso   1.00
C1054  C     0.15859   0.82912   0.43254   0.00000  Uiso   1.00
C1055  C     0.14793   0.85825   0.41085   0.00000  Uiso   1.00
H1056  H     0.17081   0.76211   0.15482   0.00000  Uiso   1.00
H1057  H     0.21589   0.85903   0.16997   0.00000  Uiso   1.00
H1058  H     0.19998   0.87601   0.08174   0.00000  Uiso   1.00
H1059  H     0.15417   0.77937   0.06684   0.00000  Uiso   1.00
H1060  H     0.25648   0.78916   0.33537   0.00000  Uiso   1.00
H1061  H     0.31602   0.80337   0.36376   0.00000  Uiso   1.00
H1062  H     0.32500   0.83917   0.21578   0.00000  Uiso   1.00
H1063  H     0.26539   0.82651   0.18744   0.00000  Uiso   1.00
H1064  H     0.14064   0.80674   0.22291   0.00000  Uiso   1.00
H1065  H     0.11243   0.83284   0.25966   0.00000  Uiso   1.00
H1066  H     0.20412   0.86277   0.35794   0.00000  Uiso   1.00
H1067  H     0.23240   0.83736   0.32049   0.00000  Uiso   1.00
H1068  H     0.02319   0.84749   0.35497   0.00000  Uiso   1.00
H1069  H     0.07978   0.83176   0.39069   0.00000  Uiso   1.00
H1070  H     0.08781   0.88415   0.24674   0.00000  Uiso   1.00
H1071  H     0.03078   0.85890   0.21174   0.00000  Uiso   1.00
H1072  H     0.19869   0.91617   0.33502   0.00000  Uiso   1.00
H1073  H     0.21515   0.97387   0.31404   0.00000  Uiso   1.00
H1074  H     0.11466   0.98422   0.28873   0.00000  Uiso   1.00
H1075  H     0.09809   0.92651   0.31069   0.00000  Uiso   1.00
H1076  H     0.13851   0.89996   0.42798   0.00000  Uiso   1.00
H1077  H     0.15357   0.88300   0.51632   0.00000  Uiso   1.00
H1078  H     0.17599   0.79715   0.49782   0.00000  Uiso   1.00
H1079  H     0.16014   0.81356   0.40956   0.00000  Uiso   1.00
C1080  C     0.85808   0.66263   0.32492   0.00000  Uiso   1.00
C1081  C     0.88450   0.67550   0.30243   0.00000  Uiso   1.00
C1082  C     0.89410   0.70825   0.28967   0.00000  Uiso   1.00
C1083  C     0.87799   0.72982   0.29878   0.00000  Uiso   1.00
C1084  C     0.85164   0.71637   0.32172   0.00000  Uiso   1.00
C1085  C     0.84182   0.68362   0.33441   0.00000  Uiso   1.00
H1086  H     0.89733   0.65970   0.29419   0.00000  Uiso   1.00
H1087  H     0.91470   0.71742   0.27210   0.00000  Uiso   1.00
H1088  H     0.83848   0.73191   0.32994   0.00000  Uiso   1.00
H1089  H     0.82158   0.67423   0.35257   0.00000  Uiso   1.00
C1090  C     0.86187   0.76372   0.17955   0.00000  Uiso   1.00
C1091  C     0.87730   0.78604   0.21029   0.00000  Uiso   1.00
C1092  C     0.88203   0.81844   0.18752   0.00000  Uiso   1.00
C1093  C     0.87240   0.82787   0.13748   0.00000  Uiso   1.00
C1094  C     0.85725   0.80526   0.10751   0.00000  Uiso   1.00
C1095  C     0.85202   0.77301   0.12947   0.00000  Uiso   1.00
Si1096 Si    0.89144   0.77451   0.27907   0.00000  Uiso   1.00
C1097  C     0.93812   0.78541   0.29881   0.00000  Uiso   1.00
C1098  C     0.95341   0.77573   0.34935   0.00000  Uiso   1.00
C1099  C     0.98613   0.78808   0.36912   0.00000  Uiso   1.00
C1100  C     0.00660   0.80326   0.33796   0.00000  Uiso   1.00
C1101  C    -0.00638   0.81002   0.28385   0.00000  Uiso   1.00
C1102  C     0.95729   0.80370   0.26747   0.00000  Uiso   1.00
C1103  C     0.83758   0.79757   0.29078   0.00000  Uiso   1.00
C1104  C     0.82140   0.81217   0.31209   0.00000  Uiso   1.00
C1105  C     0.83789   0.82676   0.35259   0.00000  Uiso   1.00
C1106  C     0.87174   0.82597   0.36998   0.00000  Uiso   1.00
C1107  C     0.88792   0.81140   0.34862   0.00000  Uiso   1.00
C1108  C     0.87135   0.79653   0.30847   0.00000  Uiso   1.00
Si1109 Si    0.81624   0.84695   0.38239   0.00000  Uiso   1.00
C1110  C     0.70039   0.81668   0.32817   0.00000  Uiso   1.00
C1111  C     0.71808   0.79852   0.36887   0.00000  Uiso   1.00
C1112  C     0.75187   0.80761   0.38462   0.00000  Uiso   1.00
C1113  C     0.76984   0.83511   0.36061   0.00000  Uiso   1.00
C1114  C     0.75165   0.85277   0.31931   0.00000  Uiso   1.00
C1115  C     0.71784   0.84394   0.30355   0.00000  Uiso   1.00
C1116  C     0.82889   0.89205   0.36579   0.00000  Uiso   1.00
C1117  C     0.85913   0.90645   0.35308   0.00000  Uiso   1.00
C1118  C     0.86853   0.93928   0.34120   0.00000  Uiso   1.00
C1119  C     0.84793   0.95958   0.34109   0.00000  Uiso   1.00
C1120  C     0.81788   0.94577   0.35404   0.00000  Uiso   1.00
C1121  C     0.80874   0.91291   0.36620   0.00000  Uiso   1.00
C1122  C     0.82535   0.85178   0.48299   0.00000  Uiso   1.00
C1123  C     0.83421   0.84257   0.53316   0.00000  Uiso   1.00
C1124  C     0.84711   0.81474   0.55420   0.00000  Uiso   1.00
C1125  C     0.85047   0.79639   0.52321   0.00000  Uiso   1.00
C1126  C     0.84143   0.80569   0.47305   0.00000  Uiso   1.00
C1127  C     0.82875   0.83377   0.45115   0.00000  Uiso   1.00
H1128  H     0.85737   0.73840   0.19521   0.00000  Uiso   1.00
H1129  H     0.89357   0.83672   0.20966   0.00000  Uiso   1.00
H1130  H     0.87711   0.85307   0.12142   0.00000  Uiso   1.00
H1131  H     0.83973   0.75497   0.10723   0.00000  Uiso   1.00
H1132  H     0.93821   0.76024   0.37332   0.00000  Uiso   1.00
H1133  H    -0.00453   0.78489   0.40840   0.00000  Uiso   1.00
H1134  H     0.00298   0.79627   0.26514   0.00000  Uiso   1.00
H1135  H     0.94668   0.81239   0.22941   0.00000  Uiso   1.00
H1136  H     0.82365   0.78666   0.25949   0.00000  Uiso   1.00
H1137  H     0.79526   0.81218   0.29702   0.00000  Uiso   1.00
H1138  H     0.88571   0.83690   0.40122   0.00000  Uiso   1.00
H1139  H     0.91408   0.81151   0.36360   0.00000  Uiso   1.00
H1140  H     0.70535   0.77690   0.38821   0.00000  Uiso   1.00
H1141  H     0.76472   0.79296   0.41659   0.00000  Uiso   1.00
H1142  H     0.76426   0.87413   0.29912   0.00000  Uiso   1.00
H1143  H     0.70477   0.85876   0.27219   0.00000  Uiso   1.00
H1144  H     0.87580   0.89157   0.35231   0.00000  Uiso   1.00
H1145  H     0.89231   0.94926   0.33229   0.00000  Uiso   1.00
H1146  H     0.80116   0.96084   0.35378   0.00000  Uiso   1.00
H1147  H     0.78514   0.90316   0.37595   0.00000  Uiso   1.00
H1148  H     0.81554   0.87365   0.46801   0.00000  Uiso   1.00
H1149  H     0.83077   0.85700   0.55630   0.00000  Uiso   1.00
H1150  H     0.86078   0.77488   0.53847   0.00000  Uiso   1.00
H1151  H     0.84450   0.79077   0.45026   0.00000  Uiso   1.00
C1152  C     0.85921  -0.00426   0.82900   0.00000  Uiso   1.00
C1153  C     0.87876   0.00901   0.79507   0.00000  Uiso   1.00
C1154  C     0.88773   0.04179   0.78196   0.00000  Uiso   1.00
C1155  C     0.87744   0.06311   0.80147   0.00000  Uiso   1.00
C1156  C     0.85796   0.04932   0.83567   0.00000  Uiso   1.00
C1157  C     0.84913   0.01651   0.84927   0.00000  Uiso   1.00
H1158  H     0.88665  -0.00647   0.77823   0.00000  Uiso   1.00
H1159  H     0.90314   0.05118   0.75572   0.00000  Uiso   1.00
H1160  H     0.84952   0.06464   0.85215   0.00000  Uiso   1.00
H1161  H     0.83449   0.00695   0.87641   0.00000  Uiso   1.00
C1162  C     0.85856   0.09797   0.68204   0.00000  Uiso   1.00
C1163  C     0.87589   0.11974   0.71301   0.00000  Uiso   1.00
C1164  C     0.88254   0.15207   0.69048   0.00000  Uiso   1.00
C1165  C     0.87324   0.16188   0.64047   0.00000  Uiso   1.00
C1166  C     0.85654   0.13972   0.61025   0.00000  Uiso   1.00
C1167  C     0.84910   0.10762   0.63199   0.00000  Uiso   1.00
Si1168 Si    0.89041   0.10787   0.78169   0.00000  Uiso   1.00
C1169  C     0.93715   0.11862   0.80089   0.00000  Uiso   1.00
C1170  C     0.95243   0.10884   0.85142   0.00000  Uiso   1.00
C1171  C     0.98525   0.12085   0.87113   0.00000  Uiso   1.00
C1172  C     1.00575   0.13582   0.83994   0.00000  Uiso   1.00
C1173  C     0.99273   0.14268   0.78586   0.00000  Uiso   1.00
C1174  C     0.95639   0.13661   0.76950   0.00000  Uiso   1.00
C1175  C     0.83709   0.13088   0.79485   0.00000  Uiso   1.00
C1176  C     0.82137   0.14616   0.81581   0.00000  Uiso   1.00
C1177  C     0.83836   0.16139   0.85549   0.00000  Uiso   1.00
C1178  C     0.87217   0.16040   0.87256   0.00000  Uiso   1.00
C1179  C     0.88792   0.14526   0.85142   0.00000  Uiso   1.00
C1180  C     0.87090   0.12986   0.81195   0.00000  Uiso   1.00
Si1181 Si    0.81734   0.18264   0.88464   0.00000  Uiso   1.00
C1182  C     0.70150   0.15305   0.82973   0.00000  Uiso   1.00
C1183  C     0.71881   0.13522   0.87129   0.00000  Uiso   1.00
C1184  C     0.75259   0.14414   0.88740   0.00000  Uiso   1.00
C1185  C     0.77089   0.17114   0.86295   0.00000  Uiso   1.00
C1186  C     0.75306   0.18855   0.82091   0.00000  Uiso   1.00
C1187  C     0.71927   0.17986   0.80474   0.00000  Uiso   1.00
C1188  C     0.83029   0.22762   0.86722   0.00000  Uiso   1.00
C1189  C     0.86007   0.24195   0.85305   0.00000  Uiso   1.00
C1190  C     0.86940   0.27479   0.84090   0.00000  Uiso   1.00
C1191  C     0.84921   0.29511   0.84210   0.00000  Uiso   1.00
C1192  C     0.81959   0.28135   0.85639   0.00000  Uiso   1.00
C1193  C     0.81049   0.24851   0.86872   0.00000  Uiso   1.00
C1194  C     0.83026   0.18962   0.98545   0.00000  Uiso   1.00
C1195  C     0.83858   0.18003   0.03562   0.00000  Uiso   1.00
C1196  C     0.84680   0.14999   0.05640   0.00000  Uiso   1.00
C1197  C     0.84633   0.12995   0.02527   0.00000  Uiso   1.00
C1198  C     0.83800   0.13970   0.97514   0.00000  Uiso   1.00
C1199  C     0.82972   0.16986   0.95348   0.00000  Uiso   1.00
H1200  H     0.85225   0.07277   0.69742   0.00000  Uiso   1.00
H1201  H     0.89538   0.17003   0.71280   0.00000  Uiso   1.00
H1202  H     0.87950   0.18696   0.62462   0.00000  Uiso   1.00
H1203  H     0.83544   0.09000   0.60956   0.00000  Uiso   1.00
H1204  H     0.93716   0.09354   0.87543   0.00000  Uiso   1.00
H1205  H     0.99463   0.11761   0.91041   0.00000  Uiso   1.00
H1206  H     1.00193   0.12890   0.76700   0.00000  Uiso   1.00
H1207  H     0.94585   0.14529   0.73142   0.00000  Uiso   1.00
H1208  H     0.82278   0.11940   0.76426   0.00000  Uiso   1.00
H1209  H     0.79521   0.14621   0.80111   0.00000  Uiso   1.00
H1210  H     0.88645   0.17169   0.90333   0.00000  Uiso   1.00
H1211  H     0.91411   0.14534   0.86599   0.00000  Uiso   1.00
H1212  H     0.70578   0.11397   0.89097   0.00000  Uiso   1.00
H1213  H     0.76514   0.12973   0.91998   0.00000  Uiso   1.00
H1214  H     0.76596   0.20956   0.80046   0.00000  Uiso   1.00
H1215  H     0.70646   0.19442   0.77273   0.00000  Uiso   1.00
H1216  H     0.87640   0.22701   0.85136   0.00000  Uiso   1.00
H1217  H     0.89282   0.28475   0.83080   0.00000  Uiso   1.00
H1218  H     0.80316   0.29645   0.85706   0.00000  Uiso   1.00
H1219  H     0.78721   0.23878   0.87947   0.00000  Uiso   1.00
H1220  H     0.82402   0.21316   0.97064   0.00000  Uiso   1.00
H1221  H     0.83831   0.19590   0.05894   0.00000  Uiso   1.00
H1222  H     0.85309   0.10668   0.04043   0.00000  Uiso   1.00
H1223  H     0.83809   0.12350   0.95215   0.00000  Uiso   1.00
C1224  C     0.85755   0.99449   0.32722   0.00000  Uiso   1.00
C1225  C     0.87596   0.00772   0.29182   0.00000  Uiso   1.00
C1226  C     0.88504   0.04048   0.27876   0.00000  Uiso   1.00
C1227  C     0.87600   0.06184   0.29979   0.00000  Uiso   1.00
C1228  C     0.85752   0.04809   0.33528   0.00000  Uiso   1.00
C1229  C     0.84857   0.01529   0.34881   0.00000  Uiso   1.00
H1230  H     0.88292   0.99221   0.27387   0.00000  Uiso   1.00
H1231  H     0.89960   0.04984   0.25139   0.00000  Uiso   1.00
H1232  H     0.85001   0.06345   0.35289   0.00000  Uiso   1.00
H1233  H     0.83478   0.00575   0.37700   0.00000  Uiso   1.00
C1234  C     0.85603   0.09793   0.18138   0.00000  Uiso   1.00
C1235  C     0.87538   0.11908   0.21232   0.00000  Uiso   1.00
C1236  C     0.88408   0.15114   0.18987   0.00000  Uiso   1.00
C1237  C     0.87477   0.16123   0.13992   0.00000  Uiso   1.00
C1238  C     0.85606   0.13964   0.10972   0.00000  Uiso   1.00
C1239  C     0.84659   0.10786   0.13138   0.00000  Uiso   1.00
Si1240 Si    0.89006   0.10655   0.28086   0.00000  Uiso   1.00
C1241  C     0.93698   0.11420   0.29839   0.00000  Uiso   1.00
C1242  C     0.95270   0.10320   0.34844   0.00000  Uiso   1.00
C1243  C     0.98683   0.11000   0.36620   0.00000  Uiso   1.00
C1244  C     0.00609   0.12181   0.33284   0.00000  Uiso   1.00
C1245  C     0.99163   0.12656   0.27818   0.00000  Uiso   1.00
C1246  C     0.95587   0.12781   0.26477   0.00000  Uiso   1.00
C1247  C     0.83754   0.12903   0.29605   0.00000  Uiso   1.00
C1248  C     0.82190   0.14421   0.31726   0.00000  Uiso   1.00
C1249  C     0.83915   0.16002   0.35622   0.00000  Uiso   1.00
C1250  C     0.87312   0.15960   0.37240   0.00000  Uiso   1.00
C1251  C     0.88882   0.14453   0.35104   0.00000  Uiso   1.00
C1252  C     0.87154   0.12867   0.31218   0.00000  Uiso   1.00
Si1253 Si    0.81854   0.18198   0.38496   0.00000  Uiso   1.00
C1254  C     0.70287   0.15773   0.32357   0.00000  Uiso   1.00
C1255  C     0.71729   0.14397   0.37110   0.00000  Uiso   1.00
C1256  C     0.75094   0.15104   0.38974   0.00000  Uiso   1.00
C1257  C     0.77210   0.17235   0.36197   0.00000  Uiso   1.00
C1258  C     0.75715   0.18610   0.31437   0.00000  Uiso   1.00
C1259  C     0.72349   0.17907   0.29551   0.00000  Uiso   1.00
C1260  C     0.83290   0.22664   0.36623   0.00000  Uiso   1.00
C1261  C     0.86132   0.24001   0.34814   0.00000  Uiso   1.00
C1262  C     0.87145   0.27261   0.33445   0.00000  Uiso   1.00
C1263  C     0.85305   0.29401   0.33820   0.00000  Uiso   1.00
C1264  C     0.82539   0.28028   0.35656   0.00000  Uiso   1.00
C1265  C     0.81461   0.24851   0.37029   0.00000  Uiso   1.00
C1266  C     0.82915   0.18858   0.48554   0.00000  Uiso   1.00
C1267  C     0.83734   0.17913   0.53574   0.00000  Uiso   1.00
C1268  C     0.84730   0.14985   0.55688   0.00000  Uiso   1.00
C1269  C     0.84861   0.13039   0.52602   0.00000  Uiso   1.00
C1270  C     0.84033   0.13996   0.47585   0.00000  Uiso   1.00
C1271  C     0.83040   0.16939   0.45384   0.00000  Uiso   1.00
H1272  H     0.84811   0.07301   0.19674   0.00000  Uiso   1.00
H1273  H     0.89860   0.16863   0.21220   0.00000  Uiso   1.00
H1274  H     0.88259   0.18604   0.12407   0.00000  Uiso   1.00
H1275  H     0.83138   0.09076   0.10893   0.00000  Uiso   1.00
H1276  H     0.93719   0.09212   0.37417   0.00000  Uiso   1.00
H1277  H    -0.00493   0.10788   0.26157   0.00000  Uiso   1.00
H1278  H     0.94508   0.13737   0.22715   0.00000  Uiso   1.00
H1279  H     0.82304   0.11713   0.26600   0.00000  Uiso   1.00
H1280  H     0.79560   0.14374   0.30329   0.00000  Uiso   1.00
H1281  H     0.88761   0.17133   0.40263   0.00000  Uiso   1.00
H1282  H     0.91514   0.14507   0.36488   0.00000  Uiso   1.00
H1283  H     0.70136   0.12750   0.39320   0.00000  Uiso   1.00
H1284  H     0.76114   0.13983   0.42679   0.00000  Uiso   1.00
H1285  H     0.77237   0.20292   0.29152   0.00000  Uiso   1.00
H1286  H     0.71335   0.19053   0.25868   0.00000  Uiso   1.00
H1287  H     0.87615   0.22428   0.34436   0.00000  Uiso   1.00
H1288  H     0.89373   0.28149   0.32083   0.00000  Uiso   1.00
H1289  H     0.79234   0.23958   0.38395   0.00000  Uiso   1.00
H1290  H     0.82159   0.21155   0.47050   0.00000  Uiso   1.00
H1291  H     0.83562   0.19452   0.55880   0.00000  Uiso   1.00
H1292  H     0.85673   0.10775   0.54140   0.00000  Uiso   1.00
H1293  H     0.84177   0.12418   0.45312   0.00000  Uiso   1.00
loop_
_geom_bond_atom_site_label_1
_geom_bond_atom_site_label_2
_geom_bond_distance
_geom_bond_site_symmetry_2
_ccdc_geom_bond_type
C1     C2      1.398   .     A
C1     C6      1.397   .     A
C1     C400    1.472   1_545 S
C2     C3      1.383   .     A
C2     H7      1.085   .     S
C3     C4      1.408   .     A
C3     H8      1.087   .     S
C4     C5      1.405   .     A
C4     Si17    1.898   .     S
C5     C6      1.385   .     A
C5     H9      1.086   .     S
C6     H10     1.085   .     S
C11    C12     1.405   .     A
C11    C16     1.385   .     A
C11    H49     1.086   .     S
C12    C13     1.408   .     A
C12    Si17    1.899   .     S
C13    C14     1.383   .     A
C13    H50     1.087   .     S
C14    C15     1.398   .     A
C14    H51     1.085   .     S
C15    C16     1.396   .     A
C15    C621    1.473   .     S
C16    H52     1.085   .     S
Si17   C18     1.899   .     S
Si17   C29     1.900   .     S
C18    C19     1.408   .     A
C18    C23     1.405   .     A
C19    C20     1.383   .     A
C19    H53     1.087   .     S
C20    C21     1.398   .     A
C20    H54     1.085   .     S
C21    C22     1.397   .     A
C21    C1182   1.472   .     S
C22    C23     1.384   .     A
C22    H55     1.085   .     S
C23    H56     1.086   .     S
C24    C25     1.384   .     A
C24    C29     1.407   .     A
C24    H57     1.088   .     S
C25    C26     1.405   .     A
C25    H58     1.087   .     S
C26    C27     1.407   .     A
C26    Si30    1.899   .     S
C27    C28     1.385   .     A
C27    H59     1.087   .     S
C28    C29     1.404   .     A
C28    H60     1.086   .     S
Si30   C34     1.899   .     S
Si30   C37     1.900   .     S
Si30   C48     1.901   .     S
C31    C32     1.398   .     A
C31    C36     1.397   .     A
C31    C93     1.473   .     S
C32    C33     1.384   .     A
C32    H61     1.085   .     S
C33    C34     1.407   .     A
C33    H62     1.087   .     S
C34    C35     1.406   .     A
C35    C36     1.384   .     A
C35    H63     1.086   .     S
C36    H64     1.085   .     S
C37    C38     1.405   .     A
C37    C42     1.408   .     A
C38    C39     1.384   .     A
C38    H65     1.086   .     S
C39    C40     1.397   .     A
C39    H66     1.085   .     S
C40    C41     1.397   .     A
C40    C145    1.472   .     S
C41    C42     1.383   .     A
C41    H67     1.085   .     S
C42    H68     1.087   .     S
C43    C44     1.383   1_556 A
C43    C48     1.407   .     A
C43    H69     1.087   .     S
C44    C43     1.383   1_554 A
C44    C45     1.397   .     A
C44    H70     1.085   .     S
C45    C46     1.397   .     A
C45    C591    1.473   .     S
C46    C47     1.384   1_554 A
C46    H71     1.085   .     S
C47    C46     1.384   1_556 A
C47    C48     1.406   .     A
C47    H72     1.086   .     S
C73    C74     1.398   .     A
C73    C78     1.396   .     A
C73    C472    1.473   1_545 S
C74    C75     1.383   .     A
C74    H79     1.085   .     S
C75    C76     1.408   .     A
C75    H80     1.087   .     S
C76    C77     1.405   .     A
C76    Si89    1.898   .     S
C77    C78     1.385   .     A
C77    H81     1.086   .     S
C78    H82     1.085   .     S
C83    C84     1.405   .     A
C83    C88     1.384   .     A
C83    H121    1.086   .     S
C84    C85     1.408   .     A
C84    Si89    1.899   .     S
C85    C86     1.383   .     A
C85    H122    1.087   .     S
C86    C87     1.398   .     A
C86    H123    1.085   .     S
C87    C88     1.397   .     A
C87    C692    1.473   .     S
C88    H124    1.085   .     S
Si89   C90     1.898   .     S
Si89   C101    1.899   .     S
C90    C91     1.408   .     A
C90    C95     1.405   .     A
C91    C92     1.383   .     A
C91    H125    1.087   .     S
C92    C93     1.398   .     A
C92    H126    1.085   .     S
C93    C94     1.397   .     A
C94    C95     1.385   .     A
C94    H127    1.085   .     S
C95    H128    1.086   .     S
C96    C97     1.384   .     A
C96    C101    1.407   .     A
C96    H129    1.088   .     S
C97    C98     1.405   .     A
C97    H130    1.086   .     S
C98    C99     1.407   .     A
C98    Si102   1.900   .     S
C99    C100    1.384   .     A
C99    H131    1.087   .     S
C100   C101    1.404   .     A
C100   H132    1.086   .     S
Si102  C106    1.899   .     S
Si102  C109    1.901   .     S
Si102  C120    1.899   .     S
C103   C104    1.495   .     S
C103   C108    1.376   .     A
C103   C1173   1.525   1_455 S
C104   C105    1.477   .     S
C104   H133    1.102   .     S
C104   C1172   1.525   1_455 S
C105   C106    1.375   .     A
C105   H134    1.085   .     S
C106   C107    1.437   .     A
C107   C108    1.391   .     A
C107   H135    1.086   .     S
C108   H136    1.085   .     S
C109   C110    1.406   .     A
C109   C114    1.406   .     A
C110   C111    1.383   .     A
C110   H137    1.086   .     S
C111   C112    1.397   .     A
C111   H138    1.085   .     S
C112   C113    1.397   .     A
C112   C217    1.473   .     S
C113   C114    1.384   .     A
C113   H139    1.085   .     S
C114   H140    1.086   .     S
C115   C116    1.384   .     A
C115   C120    1.407   .     A
C115   H141    1.087   .     S
C116   C117    1.398   1_556 A
C116   H142    1.085   1_556 S
C117   C116    1.398   1_554 A
C117   C118    1.397   1_554 A
C117   C662    1.473   .     S
C118   C117    1.397   1_556 A
C118   C119    1.384   .     A
C118   H143    1.085   1_556 S
C119   C120    1.406   .     A
C119   H144    1.086   .     S
H142   C116    1.085   1_554 S
H143   C118    1.085   1_554 S
C145   C146    1.398   .     A
C145   C150    1.397   .     A
C146   C147    1.383   .     A
C146   H151    1.085   .     S
C147   C148    1.408   .     A
C147   H152    1.087   .     S
C148   C149    1.405   .     A
C148   Si161   1.901   .     S
C149   C150    1.384   .     A
C149   H153    1.086   .     S
C150   H154    1.085   .     S
C155   C156    1.407   .     A
C155   C160    1.384   .     A
C155   H193    1.087   .     S
C156   C157    1.406   .     A
C156   Si161   1.898   .     S
C157   C158    1.384   .     A
C157   H194    1.087   .     S
C158   C159    1.397   .     A
C158   H195    1.085   .     S
C159   C160    1.397   .     A
C159   C764    1.473   .     S
C160   H196    1.085   .     S
Si161  C162    1.901   .     S
Si161  C173    1.897   .     S
C162   C163    1.405   .     A
C162   C167    1.408   .     A
C163   C164    1.384   .     A
C163   H197    1.086   .     S
C164   C165    1.395   .     A
C164   H198    1.085   .     S
C165   C166    1.396   .     A
C165   C319    1.474   .     S
C166   C167    1.383   .     A
C166   H199    1.085   .     S
C167   H200    1.087   .     S
C168   C169    1.384   .     A
C168   C173    1.406   .     A
C168   H201    1.086   .     S
C169   C170    1.407   .     A
C169   H202    1.088   .     S
C170   C171    1.405   .     A
C170   Si174   1.901   .     S
C171   C172    1.384   .     A
C171   H203    1.086   .     S
C172   C173    1.407   .     A
C172   H204    1.087   .     S
Si174  C178    1.900   .     S
Si174  C181    1.898   .     S
Si174  C192    1.897   .     S
C175   C176    1.398   .     A
C175   C180    1.397   .     A
C175   C237    1.472   .     S
C176   C177    1.383   .     A
C176   H205    1.085   .     S
C177   C178    1.406   .     A
C177   H206    1.086   .     S
C178   C179    1.407   .     A
C179   C180    1.384   .     A
C179   H207    1.086   .     S
C180   H208    1.085   .     S
C181   C182    1.406   .     A
C181   C186    1.407   .     A
C182   C183    1.384   .     A
C182   H209    1.087   .     S
C183   C184    1.397   .     A
C183   H210    1.085   .     S
C184   C185    1.398   .     A
C184   C361    1.473   .     S
C185   C186    1.384   .     A
C185   H211    1.085   .     S
C186   H212    1.087   .     S
C187   C188    1.384   1_556 A
C187   C192    1.406   .     A
C187   H213    1.086   .     S
C188   C187    1.384   1_554 A
C188   C189    1.396   .     A
C188   H214    1.085   .     S
C189   C190    1.397   .     A
C189   C734    1.472   .     S
C190   C191    1.383   1_554 A
C190   H215    1.085   .     S
C191   C190    1.383   1_556 A
C191   C192    1.408   .     A
C191   H216    1.087   .     S
C217   C218    1.398   .     A
C217   C222    1.397   .     A
C218   C219    1.383   .     A
C218   H223    1.085   .     S
C219   C220    1.408   .     A
C219   H224    1.087   .     S
C220   C221    1.404   .     A
C220   Si233   1.898   .     S
C221   C222    1.385   .     A
C221   H225    1.086   .     S
C222   H226    1.085   .     S
C227   C228    1.405   .     A
C227   C232    1.384   .     A
C227   H265    1.086   .     S
C228   C229    1.408   .     A
C228   Si233   1.897   .     S
C229   C230    1.383   .     A
C229   H266    1.087   .     S
C230   C231    1.398   .     A
C230   H267    1.085   .     S
C231   C232    1.397   .     A
C231   C836    1.473   .     S
C232   H268    1.085   .     S
Si233  C234    1.898   .     S
Si233  C245    1.899   .     S
C234   C235    1.408   .     A
C234   C239    1.404   .     A
C235   C236    1.383   .     A
C235   H269    1.087   .     S
C236   C237    1.398   .     A
C236   H270    1.085   .     S
C237   C238    1.397   .     A
C238   C239    1.385   .     A
C238   H271    1.085   .     S
C239   H272    1.086   .     S
C240   C241    1.384   .     A
C240   C245    1.407   .     A
C240   H273    1.088   .     S
C241   C242    1.405   .     A
C241   H274    1.086   .     S
C242   C243    1.407   .     A
C242   Si246   1.901   .     S
C243   C244    1.384   .     A
C243   H275    1.087   .     S
C244   C245    1.404   .     A
C244   H276    1.086   .     S
Si246  C250    1.898   .     S
Si246  C253    1.901   .     S
Si246  C264    1.899   .     S
C247   C248    1.496   .     S
C247   C252    1.377   .     A
C247   C310    1.526   1_455 S
C248   C249    1.477   .     S
C248   H277    1.102   .     S
C248   C309    1.524   1_455 S
C249   C250    1.375   .     A
C249   H278    1.085   .     S
C250   C251    1.438   .     A
C251   C252    1.391   .     A
C251   H279    1.086   .     S
C252   H280    1.085   .     S
C253   C254    1.407   .     A
C253   C258    1.406   .     A
C254   C255    1.383   .     A
C254   H281    1.086   .     S
C255   C256    1.397   .     A
C255   H282    1.085   .     S
C256   C257    1.396   .     A
C256   C433    1.473   .     S
C257   C258    1.385   .     A
C257   H283    1.085   .     S
C258   H284    1.086   .     S
C259   C260    1.384   .     A
C259   C264    1.407   .     A
C259   H285    1.087   .     S
C260   C261    1.397   1_556 A
C260   H286    1.085   1_556 S
C261   C260    1.397   1_554 A
C261   C262    1.397   1_554 A
C261   C806    1.473   .     S
C262   C261    1.397   1_556 A
C262   C263    1.384   .     A
C262   H287    1.085   1_556 S
C263   C264    1.406   .     A
C263   H288    1.086   .     S
H286   C260    1.085   1_554 S
H287   C262    1.085   1_554 S
C289   C290    1.398   .     A
C289   C294    1.397   .     A
C289   C1191   1.472   .     S
C290   C291    1.383   .     A
C290   H295    1.085   .     S
C291   C292    1.408   .     A
C291   H296    1.087   .     S
C292   C293    1.405   .     A
C292   Si305   1.898   .     S
C293   C294    1.384   .     A
C293   H297    1.086   .     S
C294   H298    1.085   .     S
C299   C300    1.404   .     A
C299   C304    1.384   .     A
C299   H337    1.086   .     S
C300   C301    1.409   .     A
C300   Si305   1.898   .     S
C301   C302    1.383   .     A
C301   H338    1.087   .     S
C302   C303    1.397   .     A
C302   H339    1.085   .     S
C303   C304    1.397   .     A
C303   C908    1.473   .     S
C304   H340    1.085   .     S
Si305  C306    1.900   .     S
Si305  C317    1.899   .     S
C306   C307    1.438   .     A
C306   C311    1.374   .     A
C307   C308    1.390   .     A
C307   H341    1.086   .     S
C308   C309    1.378   .     A
C308   H342    1.085   .     S
C309   C248    1.524   1_655 S
C309   C310    1.495   .     S
C310   C247    1.526   1_655 S
C310   C311    1.477   .     S
C310   H343    1.102   1_655 S
C311   H344    1.085   .     S
C312   C313    1.384   .     A
C312   C317    1.407   .     A
C312   H345    1.088   .     S
C313   C314    1.405   .     A
C313   H346    1.086   .     S
C314   C315    1.407   .     A
C314   Si318   1.900   .     S
C315   C316    1.384   .     A
C315   H347    1.087   .     S
C316   C317    1.405   .     A
C316   H348    1.086   .     S
Si318  C322    1.897   .     S
Si318  C325    1.901   .     S
Si318  C336    1.898   .     S
C319   C320    1.396   .     A
C319   C324    1.396   .     A
C320   C321    1.384   .     A
C320   H349    1.085   .     S
C321   C322    1.405   .     A
C321   H350    1.086   .     S
C322   C323    1.408   .     A
C323   C324    1.384   .     A
C323   H351    1.087   .     S
C324   H352    1.085   .     S
C325   C326    1.407   .     A
C325   C330    1.406   .     A
C326   C327    1.384   .     A
C326   H353    1.087   .     S
C327   C328    1.397   .     A
C327   H354    1.085   .     S
C328   C329    1.396   .     A
C328   C505    1.473   .     S
C329   C330    1.384   .     A
C329   H355    1.085   .     S
C330   H356    1.086   .     S
C331   C332    1.383   1_556 A
C331   C336    1.407   .     A
C331   H357    1.087   .     S
C332   C331    1.383   1_554 A
C332   C333    1.398   .     A
C332   H358    1.085   .     S
C333   C334    1.397   .     A
C333   C878    1.473   .     S
C334   C335    1.384   1_554 A
C334   H359    1.085   .     S
C335   C334    1.384   1_556 A
C335   C336    1.405   .     A
C335   H360    1.086   .     S
H343   C310    1.102   1_455 S
C361   C362    1.398   .     A
C361   C366    1.397   .     A
C362   C363    1.383   .     A
C362   H367    1.085   .     S
C363   C364    1.408   .     A
C363   H368    1.087   .     S
C364   C365    1.405   .     A
C364   Si377   1.899   .     S
C365   C366    1.384   .     A
C365   H369    1.086   .     S
C366   H370    1.085   .     S
C371   C372    1.405   .     A
C371   C376    1.385   .     A
C371   H409    1.086   .     S
C372   C373    1.408   .     A
C372   Si377   1.899   .     S
C373   C374    1.383   .     A
C373   H410    1.087   .     S
C374   C375    1.398   .     A
C374   H411    1.085   .     S
C375   C376    1.397   .     A
C375   C980    1.473   .     S
C376   H412    1.085   .     S
Si377  C378    1.899   .     S
Si377  C389    1.901   .     S
C378   C379    1.408   .     A
C378   C383    1.405   .     A
C379   C380    1.383   .     A
C379   H413    1.087   .     S
C380   C381    1.398   .     A
C380   H414    1.085   .     S
C381   C382    1.397   .     A
C381   C535    1.472   .     S
C382   C383    1.384   .     A
C382   H415    1.085   .     S
C383   H416    1.086   .     S
C384   C385    1.384   .     A
C384   C389    1.408   .     A
C384   H417    1.088   .     S
C385   C386    1.405   .     A
C385   H418    1.087   .     S
C386   C387    1.407   .     A
C386   Si390   1.899   .     S
C387   C388    1.385   .     A
C387   H419    1.087   .     S
C388   C389    1.404   .     A
C388   H420    1.086   .     S
Si390  C394    1.899   .     S
Si390  C397    1.900   .     S
Si390  C408    1.900   .     S
C391   C392    1.398   .     A
C391   C396    1.398   .     A
C391   C453    1.473   .     S
C392   C393    1.384   .     A
C392   H421    1.085   .     S
C393   C394    1.407   .     A
C393   H422    1.087   .     S
C394   C395    1.406   .     A
C395   C396    1.383   .     A
C395   H423    1.086   .     S
C396   H424    1.085   .     S
C397   C398    1.406   .     A
C397   C402    1.407   .     A
C398   C399    1.384   .     A
C398   H425    1.086   .     S
C399   C400    1.397   .     A
C399   H426    1.085   .     S
C400   C1      1.472   1_565 S
C400   C401    1.398   .     A
C401   C402    1.384   .     A
C401   H427    1.085   .     S
C402   H428    1.087   .     S
C403   C404    1.384   1_556 A
C403   C408    1.407   .     A
C403   H429    1.087   .     S
C404   C403    1.384   1_554 A
C404   C405    1.397   .     A
C404   H430    1.085   .     S
C405   C406    1.397   .     A
C405   C950    1.473   .     S
C406   C407    1.384   1_554 A
C406   H431    1.085   .     S
C407   C406    1.384   1_556 A
C407   C408    1.406   .     A
C407   H432    1.086   .     S
C433   C434    1.398   .     A
C433   C438    1.396   .     A
C434   C435    1.383   .     A
C434   H439    1.085   .     S
C435   C436    1.408   .     A
C435   H440    1.087   .     S
C436   C437    1.405   .     A
C436   Si449   1.898   .     S
C437   C438    1.385   .     A
C437   H441    1.086   .     S
C438   H442    1.085   .     S
C443   C444    1.405   .     A
C443   C448    1.384   .     A
C443   H481    1.086   .     S
C444   C445    1.408   .     A
C444   Si449   1.898   .     S
C445   C446    1.383   .     A
C445   H482    1.087   .     S
C446   C447    1.398   .     A
C446   H483    1.085   .     S
C447   C448    1.397   .     A
C447   C1052   1.473   .     S
C448   H484    1.085   .     S
Si449  C450    1.898   .     S
Si449  C461    1.899   .     S
C450   C451    1.408   .     A
C450   C455    1.405   .     A
C451   C452    1.383   .     A
C451   H485    1.087   .     S
C452   C453    1.398   .     A
C452   H486    1.085   .     S
C453   C454    1.397   .     A
C454   C455    1.384   .     A
C454   H487    1.085   .     S
C455   H488    1.086   .     S
C456   C457    1.384   .     A
C456   C461    1.407   .     A
C456   H489    1.087   .     S
C457   C458    1.405   .     A
C457   H490    1.086   .     S
C458   C459    1.407   .     A
C458   Si462   1.900   .     S
C459   C460    1.384   .     A
C459   H491    1.087   .     S
C460   C461    1.404   .     A
C460   H492    1.086   .     S
Si462  C466    1.899   .     S
Si462  C469    1.900   .     S
Si462  C480    1.899   .     S
C463   C464    1.496   .     S
C463   C468    1.377   .     A
C463   C526    1.525   1_455 S
C464   C465    1.477   .     S
C464   H493    1.103   .     S
C464   C525    1.525   1_455 S
C465   C466    1.375   .     A
C465   H494    1.085   .     S
C466   C467    1.437   .     A
C467   C468    1.391   .     A
C467   H495    1.086   .     S
C468   H496    1.085   .     S
C469   C470    1.406   .     A
C469   C474    1.406   .     A
C470   C471    1.383   .     A
C470   H497    1.086   .     S
C471   C472    1.397   .     A
C471   H498    1.085   .     S
C472   C73     1.473   1_565 S
C472   C473    1.397   .     A
C473   C474    1.384   .     A
C473   H499    1.085   .     S
C474   H500    1.086   .     S
C475   C476    1.384   1_556 A
C475   C480    1.407   .     A
C475   H501    1.087   .     S
C476   C475    1.384   1_554 A
C476   C477    1.397   .     A
C476   H502    1.085   .     S
C477   C478    1.397   1_554 A
C477   C1022   1.473   .     S
C478   C477    1.397   1_556 A
C478   C479    1.384   .     A
C478   H503    1.085   1_556 S
C479   C480    1.406   .     A
C479   H504    1.086   .     S
H503   C478    1.085   1_554 S
C505   C506    1.396   .     A
C505   C510    1.397   .     A
C506   C507    1.384   .     A
C506   H511    1.085   .     S
C507   C508    1.407   .     A
C507   H512    1.087   .     S
C508   C509    1.406   .     A
C508   Si521   1.898   .     S
C509   C510    1.384   .     A
C509   H513    1.086   .     S
C510   H514    1.085   .     S
C515   C516    1.405   .     A
C515   C520    1.384   .     A
C515   H553    1.086   .     S
C516   C517    1.408   .     A
C516   Si521   1.898   .     S
C517   C518    1.383   .     A
C517   H554    1.087   .     S
C518   C519    1.398   .     A
C518   H555    1.085   .     S
C519   C520    1.397   .     A
C519   C1124   1.473   .     S
C520   H556    1.085   .     S
Si521  C522    1.899   .     S
Si521  C533    1.900   .     S
C522   C523    1.437   .     A
C522   C527    1.375   .     A
C523   C524    1.391   .     A
C523   H557    1.086   .     S
C524   C525    1.378   .     A
C524   H558    1.085   .     S
C525   C464    1.525   1_655 S
C525   C526    1.495   .     S
C526   C463    1.525   1_655 S
C526   C527    1.477   .     S
C526   H559    1.102   1_655 S
C527   H560    1.085   .     S
C528   C529    1.384   .     A
C528   C533    1.407   .     A
C528   H561    1.087   .     S
C529   C530    1.405   .     A
C529   H562    1.087   .     S
C530   C531    1.407   .     A
C530   Si534   1.899   .     S
C531   C532    1.384   .     A
C531   H563    1.087   .     S
C532   C533    1.405   .     A
C532   H564    1.087   .     S
Si534  C538    1.898   .     S
Si534  C541    1.899   .     S
Si534  C552    1.899   .     S
C535   C536    1.397   .     A
C535   C540    1.398   .     A
C536   C537    1.384   .     A
C536   H565    1.085   .     S
C537   C538    1.407   .     A
C537   H566    1.087   .     S
C538   C539    1.406   .     A
C539   C540    1.384   .     A
C539   H567    1.086   .     S
C540   H568    1.085   .     S
C541   C542    1.406   .     A
C541   C546    1.407   .     A
C542   C543    1.383   .     A
C542   H569    1.086   .     S
C543   C544    1.398   .     A
C543   H570    1.085   .     S
C544   C545    1.397   .     A
C544   C1152   1.472   1_565 S
C545   C546    1.384   .     A
C545   H571    1.085   .     S
C546   H572    1.086   .     S
C547   C548    1.383   1_556 A
C547   C552    1.407   .     A
C547   H573    1.087   .     S
C548   C547    1.383   1_554 A
C548   C549    1.398   .     A
C548   H574    1.085   .     S
C549   C550    1.397   .     A
C549   C1094   1.472   .     S
C550   C551    1.384   1_554 A
C550   H575    1.085   .     S
C551   C550    1.384   1_556 A
C551   C552    1.406   .     A
C551   H576    1.086   .     S
H559   C526    1.102   1_455 S
C577   C578    1.399   .     A
C577   C582    1.397   .     A
C577   C975    1.473   1_545 S
C578   C579    1.383   .     A
C578   H583    1.085   .     S
C579   C580    1.408   .     A
C579   H584    1.087   .     S
C580   C581    1.405   .     A
C580   Si593   1.898   .     S
C581   C582    1.385   .     A
C581   H585    1.086   .     S
C582   H586    1.085   .     S
C587   C588    1.405   .     A
C587   C592    1.385   .     A
C587   H625    1.086   .     S
C588   C589    1.408   .     A
C588   Si593   1.900   .     S
C589   C590    1.383   .     A
C589   H626    1.087   .     S
C590   C591    1.398   .     A
C590   H627    1.085   .     S
C591   C592    1.397   .     A
C592   H628    1.085   .     S
Si593  C594    1.897   .     S
Si593  C605    1.900   .     S
C594   C595    1.422   .     A
C594   C599    1.402   .     A
C595   C596    1.356   .     A
C595   H629    1.086   .     S
C596   C597    1.381   .     A
C597   C598    1.405   .     A
C597   C1254   1.467   .     S
C598   C599    1.384   .     A
C598   H630    1.085   .     S
C599   H631    1.086   .     S
C600   C601    1.384   .     A
C600   C605    1.407   .     A
C600   H632    1.087   .     S
C601   C602    1.406   .     A
C601   H633    1.087   .     S
C602   C603    1.407   .     A
C602   Si606   1.898   .     S
C603   C604    1.385   .     A
C603   H634    1.087   .     S
C604   C605    1.405   .     A
C604   H635    1.086   .     S
Si606  C610    1.900   .     S
Si606  C613    1.899   .     S
Si606  C624    1.900   .     S
C607   C608    1.398   .     A
C607   C612    1.397   .     A
C607   C668    1.473   .     S
C608   C609    1.384   .     A
C608   H636    1.085   .     S
C609   C610    1.406   .     A
C609   H637    1.087   .     S
C610   C611    1.406   .     A
C611   C612    1.383   .     A
C611   H638    1.086   .     S
C612   H639    1.085   .     S
C613   C614    1.405   .     A
C613   C618    1.408   .     A
C614   C615    1.384   .     A
C614   H640    1.086   .     S
C615   C616    1.397   .     A
C615   H641    1.085   .     S
C616   C617    1.398   .     A
C616   C720    1.472   .     S
C617   C618    1.383   .     A
C617   H642    1.085   .     S
C618   H643    1.087   .     S
C619   C620    1.384   .     A
C619   C624    1.406   .     A
C619   H644    1.087   .     S
C620   C621    1.397   .     A
C620   H645    1.085   .     S
C621   C622    1.397   .     A
C622   C623    1.384   .     A
C622   H646    1.085   .     S
C623   C624    1.407   .     A
C623   H647    1.087   .     S
C648   C649    1.398   .     A
C648   C653    1.396   .     A
C648   C1047   1.473   1_545 S
C649   C650    1.383   .     A
C649   H654    1.085   .     S
C650   C651    1.408   .     A
C650   H655    1.087   .     S
C651   C652    1.405   .     A
C651   Si664   1.898   .     S
C652   C653    1.385   .     A
C652   H656    1.086   .     S
C653   H657    1.085   .     S
C658   C659    1.405   .     A
C658   C663    1.385   .     A
C658   H696    1.086   .     S
C659   C660    1.408   .     A
C659   Si664   1.899   .     S
C660   C661    1.383   .     A
C660   H697    1.087   .     S
C661   C662    1.398   .     A
C661   H698    1.085   .     S
C662   C663    1.397   .     A
C663   H699    1.085   .     S
Si664  C665    1.898   .     S
Si664  C676    1.899   .     S
C665   C666    1.408   .     A
C665   C670    1.405   .     A
C666   C667    1.383   .     A
C666   H700    1.087   .     S
C667   C668    1.398   .     A
C667   H701    1.085   .     S
C668   C669    1.397   .     A
C669   C670    1.384   .     A
C669   H702    1.085   .     S
C670   H703    1.086   .     S
C671   C672    1.383   .     A
C671   C676    1.407   .     A
C671   H704    1.088   .     S
C672   C673    1.406   .     A
C672   H705    1.086   .     S
C673   C674    1.407   .     A
C673   Si677   1.905   .     S
C674   C675    1.385   .     A
C674   H706    1.087   .     S
C675   C676    1.404   .     A
C675   H707    1.086   .     S
Si677  C681    1.900   .     S
Si677  C684    1.899   .     S
Si677  C695    1.899   .     S
C678   C679    1.416   .     A
C678   C683    1.369   .     A
C678   C1245   1.533   1_455 S
C679   C680    1.383   .     A
C679   C1244   1.447   .     A
C680   C681    1.414   .     A
C680   H709    1.085   .     S
C681   C682    1.411   .     A
C682   C683    1.403   .     A
C682   H710    1.087   .     S
C683   H711    1.084   .     S
C684   C685    1.407   .     A
C684   C689    1.406   .     A
C685   C686    1.383   .     A
C685   H712    1.086   .     S
C686   C687    1.397   .     A
C686   H713    1.085   .     S
C687   C688    1.397   .     A
C687   C792    1.473   .     S
C688   C689    1.385   .     A
C688   H714    1.085   .     S
C689   H715    1.086   .     S
C690   C691    1.384   .     A
C690   C695    1.406   .     A
C690   H716    1.087   .     S
C691   C692    1.397   .     A
C691   H717    1.085   .     S
C692   C693    1.397   .     A
C693   C694    1.383   .     A
C693   H718    1.085   .     S
C694   C695    1.407   .     A
C694   H719    1.087   .     S
H708   C1243   1.085   1_455 S
C720   C721    1.398   .     A
C720   C725    1.397   .     A
C721   C722    1.383   .     A
C721   H726    1.085   .     S
C722   C723    1.408   .     A
C722   H727    1.087   .     S
C723   C724    1.405   .     A
C723   Si736   1.901   .     S
C724   C725    1.384   .     A
C724   H728    1.086   .     S
C725   H729    1.085   .     S
C730   C731    1.406   .     A
C730   C735    1.384   .     A
C730   H768    1.087   .     S
C731   C732    1.406   .     A
C731   Si736   1.898   .     S
C732   C733    1.384   .     A
C732   H769    1.087   .     S
C733   C734    1.397   .     A
C733   H770    1.085   .     S
C734   C735    1.397   .     A
C735   H771    1.085   .     S
Si736  C737    1.901   .     S
Si736  C748    1.897   .     S
C737   C738    1.405   .     A
C737   C742    1.408   .     A
C738   C739    1.385   .     A
C738   H772    1.085   .     S
C739   C740    1.395   .     A
C739   H773    1.085   .     S
C740   C741    1.396   .     A
C740   C894    1.474   .     S
C741   C742    1.383   .     A
C741   H774    1.085   .     S
C742   H775    1.087   .     S
C743   C744    1.384   .     A
C743   C748    1.406   .     A
C743   H776    1.087   .     S
C744   C745    1.407   .     A
C744   H777    1.088   .     S
C745   C746    1.405   .     A
C745   Si749   1.901   .     S
C746   C747    1.384   .     A
C746   H778    1.086   .     S
C747   C748    1.407   .     A
C747   H779    1.087   .     S
Si749  C753    1.901   .     S
Si749  C756    1.899   .     S
Si749  C767    1.897   .     S
C750   C751    1.398   .     A
C750   C755    1.398   .     A
C750   C812    1.472   .     S
C751   C752    1.383   .     A
C751   H780    1.085   .     S
C752   C753    1.406   .     A
C752   H781    1.086   .     S
C753   C754    1.407   .     A
C754   C755    1.384   .     A
C754   H782    1.086   .     S
C755   H783    1.085   .     S
C756   C757    1.406   .     A
C756   C761    1.407   .     A
C757   C758    1.384   .     A
C757   H784    1.087   .     S
C758   C759    1.398   .     A
C758   H785    1.085   .     S
C759   C760    1.398   .     A
C759   C936    1.473   .     S
C760   C761    1.384   .     A
C760   H786    1.085   .     S
C761   H787    1.087   .     S
C762   C763    1.384   .     A
C762   C767    1.406   .     A
C762   H788    1.086   .     S
C763   C764    1.396   .     A
C763   H789    1.085   .     S
C764   C765    1.397   .     A
C765   C766    1.383   .     A
C765   H790    1.085   .     S
C766   C767    1.408   .     A
C766   H791    1.086   .     S
C792   C793    1.398   .     A
C792   C797    1.396   .     A
C793   C794    1.383   .     A
C793   H798    1.085   .     S
C794   C795    1.408   .     A
C794   H799    1.087   .     S
C795   C796    1.405   .     A
C795   Si808   1.898   .     S
C796   C797    1.385   .     A
C796   H800    1.086   .     S
C797   H801    1.085   .     S
C802   C803    1.405   .     A
C802   C807    1.384   .     A
C802   H840    1.086   .     S
C803   C804    1.408   .     A
C803   Si808   1.898   .     S
C804   C805    1.383   .     A
C804   H841    1.087   .     S
C805   C806    1.398   .     A
C805   H842    1.085   .     S
C806   C807    1.397   .     A
C807   H843    1.085   .     S
Si808  C809    1.899   .     S
Si808  C820    1.900   .     S
C809   C810    1.408   .     A
C809   C814    1.405   .     A
C810   C811    1.383   .     A
C810   H844    1.087   .     S
C811   C812    1.398   .     A
C811   H845    1.085   .     S
C812   C813    1.397   .     A
C813   C814    1.385   .     A
C813   H846    1.085   .     S
C814   H847    1.086   .     S
C815   C816    1.384   .     A
C815   C820    1.407   .     A
C815   H848    1.088   .     S
C816   C817    1.405   .     A
C816   H849    1.086   .     S
C817   C818    1.407   .     A
C817   Si821   1.900   .     S
C818   C819    1.384   .     A
C818   H850    1.087   .     S
C819   C820    1.405   .     A
C819   H851    1.086   .     S
Si821  C825    1.898   .     S
Si821  C828    1.900   .     S
Si821  C839    1.899   .     S
C822   C823    1.496   .     S
C822   C827    1.377   .     A
C822   C885    1.525   .     S
C823   C824    1.477   .     S
C823   H852    1.102   .     S
C823   C884    1.525   .     S
C824   C825    1.375   .     A
C824   H853    1.085   .     S
C825   C826    1.438   .     A
C826   C827    1.390   .     A
C826   H854    1.086   .     S
C827   H855    1.085   .     S
C828   C829    1.406   .     A
C828   C833    1.406   .     A
C829   C830    1.383   .     A
C829   H856    1.086   .     S
C830   C831    1.397   .     A
C830   H857    1.085   .     S
C831   C832    1.397   .     A
C831   C1008   1.473   .     S
C832   C833    1.384   .     A
C832   H858    1.085   .     S
C833   H859    1.086   .     S
C834   C835    1.384   .     A
C834   C839    1.407   .     A
C834   H860    1.087   .     S
C835   C836    1.397   .     A
C835   H861    1.085   .     S
C836   C837    1.397   .     A
C837   C838    1.384   .     A
C837   H862    1.085   .     S
C838   C839    1.406   .     A
C838   H863    1.086   .     S
C864   C865    1.398   .     A
C864   C869    1.400   .     A
C864   C1263   1.467   .     S
C865   C866    1.383   .     A
C865   H870    1.084   .     S
C866   C867    1.408   .     A
C866   H871    1.087   .     S
C867   C868    1.406   .     A
C867   Si880   1.896   .     S
C868   C869    1.382   .     A
C868   H872    1.086   .     S
C869   H873    1.087   .     S
C874   C875    1.405   .     A
C874   C879    1.384   .     A
C874   H912    1.086   .     S
C875   C876    1.408   .     A
C875   Si880   1.898   .     S
C876   C877    1.383   .     A
C876   H913    1.087   .     S
C877   C878    1.398   .     A
C877   H914    1.085   .     S
C878   C879    1.397   .     A
C879   H915    1.085   .     S
Si880  C881    1.901   .     S
Si880  C892    1.898   .     S
C881   C882    1.437   .     A
C881   C886    1.375   .     A
C882   C883    1.391   .     A
C882   H916    1.086   .     S
C883   C884    1.377   1_655 A
C883   H917    1.085   1_655 S
C884   C883    1.377   1_455 A
C884   C885    1.495   .     S
C885   C886    1.477   1_455 S
C885   H918    1.102   .     S
C886   C885    1.477   1_655 S
C886   H919    1.085   .     S
C887   C888    1.384   .     A
C887   C892    1.407   .     A
C887   H920    1.087   .     S
C888   C889    1.405   .     A
C888   H921    1.086   .     S
C889   C890    1.407   .     A
C889   Si893   1.901   .     S
C890   C891    1.384   .     A
C890   H922    1.087   .     S
C891   C892    1.405   .     A
C891   H923    1.086   .     S
Si893  C897    1.897   .     S
Si893  C900    1.902   .     S
Si893  C911    1.899   .     S
C894   C895    1.395   .     A
C894   C899    1.396   .     A
C895   C896    1.384   .     A
C895   H924    1.085   .     S
C896   C897    1.405   .     A
C896   H925    1.086   .     S
C897   C898    1.408   .     A
C898   C899    1.384   .     A
C898   H926    1.087   .     S
C899   H927    1.085   .     S
C900   C901    1.407   .     A
C900   C905    1.406   .     A
C901   C902    1.383   .     A
C901   H928    1.086   .     S
C902   C903    1.397   .     A
C902   H929    1.085   .     S
C903   C904    1.396   .     A
C903   C1080   1.473   .     S
C904   C905    1.384   .     A
C904   H930    1.085   .     S
C905   H931    1.086   .     S
C906   C907    1.384   .     A
C906   C911    1.407   .     A
C906   H932    1.087   .     S
C907   C908    1.397   .     A
C907   H933    1.085   .     S
C908   C909    1.397   .     A
C909   C910    1.384   .     A
C909   H934    1.085   .     S
C910   C911    1.406   .     A
C910   H935    1.086   .     S
H917   C883    1.085   1_455 S
C936   C937    1.398   .     A
C936   C941    1.397   .     A
C937   C938    1.383   .     A
C937   H942    1.085   .     S
C938   C939    1.408   .     A
C938   H943    1.087   .     S
C939   C940    1.405   .     A
C939   Si952   1.898   .     S
C940   C941    1.385   .     A
C940   H944    1.086   .     S
C941   H945    1.085   .     S
C946   C947    1.405   .     A
C946   C951    1.385   .     A
C946   H984    1.086   .     S
C947   C948    1.408   .     A
C947   Si952   1.899   .     S
C948   C949    1.383   .     A
C948   H985    1.087   .     S
C949   C950    1.398   .     A
C949   H986    1.085   .     S
C950   C951    1.396   .     A
C951   H987    1.085   .     S
Si952  C953    1.899   .     S
Si952  C964    1.901   .     S
C953   C954    1.408   .     A
C953   C958    1.405   .     A
C954   C955    1.383   .     A
C954   H988    1.087   .     S
C955   C956    1.398   .     A
C955   H989    1.085   .     S
C956   C957    1.397   .     A
C956   C1110   1.473   .     S
C957   C958    1.384   .     A
C957   H990    1.085   .     S
C958   H991    1.086   .     S
C959   C960    1.384   .     A
C959   C964    1.407   .     A
C959   H992    1.088   .     S
C960   C961    1.406   .     A
C960   H993    1.087   .     S
C961   C962    1.407   .     A
C961   Si965   1.900   .     S
C962   C963    1.385   .     A
C962   H994    1.087   .     S
C963   C964    1.404   .     A
C963   H995    1.086   .     S
Si965  C969    1.899   .     S
Si965  C972    1.899   .     S
Si965  C983    1.900   .     S
C966   C967    1.398   .     A
C966   C971    1.398   .     A
C966   C1028   1.473   .     S
C967   C968    1.384   .     A
C967   H996    1.085   .     S
C968   C969    1.406   .     A
C968   H997    1.087   .     S
C969   C970    1.406   .     A
C970   C971    1.384   .     A
C970   H998    1.086   .     S
C971   H999    1.085   .     S
C972   C973    1.406   .     A
C972   C977    1.407   .     A
C973   C974    1.384   .     A
C973   H1000   1.086   .     S
C974   C975    1.398   .     A
C974   H1001   1.085   .     S
C975   C577    1.473   1_565 S
C975   C976    1.398   .     A
C976   C977    1.384   .     A
C976   H1002   1.085   .     S
C977   H1003   1.086   .     S
C978   C979    1.384   .     A
C978   C983    1.406   .     A
C978   H1004   1.087   .     S
C979   C980    1.397   .     A
C979   H1005   1.085   .     S
C980   C981    1.397   .     A
C981   C982    1.384   .     A
C981   H1006   1.085   .     S
C982   C983    1.406   .     A
C982   H1007   1.086   .     S
C1008  C1009   1.398   .     A
C1008  C1013   1.397   .     A
C1009  C1010   1.383   .     A
C1009  H1014   1.085   .     S
C1010  C1011   1.408   .     A
C1010  H1015   1.087   .     S
C1011  C1012   1.405   .     A
C1011  Si1024  1.898   .     S
C1012  C1013   1.385   .     A
C1012  H1016   1.086   .     S
C1013  H1017   1.085   .     S
C1018  C1019   1.405   .     A
C1018  C1023   1.384   .     A
C1018  H1056   1.086   .     S
C1019  C1020   1.408   .     A
C1019  Si1024  1.899   .     S
C1020  C1021   1.383   .     A
C1020  H1057   1.087   .     S
C1021  C1022   1.398   .     A
C1021  H1058   1.085   .     S
C1022  C1023   1.397   .     A
C1023  H1059   1.085   .     S
Si1024 C1025   1.898   .     S
Si1024 C1036   1.899   .     S
C1025  C1026   1.408   .     A
C1025  C1030   1.405   .     A
C1026  C1027   1.383   .     A
C1026  H1060   1.087   .     S
C1027  C1028   1.398   .     A
C1027  H1061   1.085   .     S
C1028  C1029   1.397   .     A
C1029  C1030   1.384   .     A
C1029  H1062   1.085   .     S
C1030  H1063   1.086   .     S
C1031  C1032   1.384   .     A
C1031  C1036   1.407   .     A
C1031  H1064   1.088   .     S
C1032  C1033   1.405   .     A
C1032  H1065   1.086   .     S
C1033  C1034   1.407   .     A
C1033  Si1037  1.901   .     S
C1034  C1035   1.384   .     A
C1034  H1066   1.087   .     S
C1035  C1036   1.404   .     A
C1035  H1067   1.086   .     S
Si1037 C1041   1.899   .     S
Si1037 C1044   1.901   .     S
Si1037 C1055   1.899   .     S
C1038  C1039   1.495   .     S
C1038  C1043   1.377   .     A
C1038  C1101   1.525   .     S
C1039  C1040   1.477   .     S
C1039  H1068   1.102   .     S
C1039  C1100   1.525   .     S
C1040  C1041   1.376   .     A
C1040  H1069   1.085   .     S
C1041  C1042   1.437   .     A
C1042  C1043   1.391   .     A
C1042  H1070   1.086   .     S
C1043  H1071   1.085   .     S
C1044  C1045   1.407   .     A
C1044  C1049   1.406   .     A
C1045  C1046   1.383   .     A
C1045  H1072   1.086   .     S
C1046  C1047   1.397   .     A
C1046  H1073   1.085   .     S
C1047  C648    1.473   1_565 S
C1047  C1048   1.396   .     A
C1048  C1049   1.385   .     A
C1048  H1074   1.085   .     S
C1049  H1075   1.086   .     S
C1050  C1051   1.384   .     A
C1050  C1055   1.407   .     A
C1050  H1076   1.087   .     S
C1051  C1052   1.397   .     A
C1051  H1077   1.085   .     S
C1052  C1053   1.397   .     A
C1053  C1054   1.384   .     A
C1053  H1078   1.085   .     S
C1054  C1055   1.406   .     A
C1054  H1079   1.086   .     S
C1080  C1081   1.397   .     A
C1080  C1085   1.396   .     A
C1081  C1082   1.383   .     A
C1081  H1086   1.085   .     S
C1082  C1083   1.408   .     A
C1082  H1087   1.087   .     S
C1083  C1084   1.405   .     A
C1083  Si1096  1.898   .     S
C1084  C1085   1.384   .     A
C1084  H1088   1.086   .     S
C1085  H1089   1.085   .     S
C1090  C1091   1.405   .     A
C1090  C1095   1.384   .     A
C1090  H1128   1.086   .     S
C1091  C1092   1.408   .     A
C1091  Si1096  1.898   .     S
C1092  C1093   1.383   .     A
C1092  H1129   1.087   .     S
C1093  C1094   1.398   .     A
C1093  H1130   1.085   .     S
C1094  C1095   1.397   .     A
C1095  H1131   1.085   .     S
Si1096 C1097   1.900   .     S
Si1096 C1108   1.899   .     S
C1097  C1098   1.438   .     A
C1097  C1102   1.375   .     A
C1098  C1099   1.391   .     A
C1098  H1132   1.086   .     S
C1099  C1100   1.378   1_655 A
C1099  H1133   1.085   1_655 S
C1100  C1099   1.378   1_455 A
C1100  C1101   1.496   .     S
C1101  C1102   1.477   1_455 S
C1101  H1134   1.102   .     S
C1102  C1101   1.477   1_655 S
C1102  H1135   1.085   .     S
C1103  C1104   1.384   .     A
C1103  C1108   1.407   .     A
C1103  H1136   1.087   .     S
C1104  C1105   1.405   .     A
C1104  H1137   1.087   .     S
C1105  C1106   1.407   .     A
C1105  Si1109  1.898   .     S
C1106  C1107   1.384   .     A
C1106  H1138   1.087   .     S
C1107  C1108   1.405   .     A
C1107  H1139   1.087   .     S
Si1109 C1113   1.898   .     S
Si1109 C1116   1.900   .     S
Si1109 C1127   1.900   .     S
C1110  C1111   1.398   .     A
C1110  C1115   1.398   .     A
C1111  C1112   1.384   .     A
C1111  H1140   1.085   .     S
C1112  C1113   1.407   .     A
C1112  H1141   1.087   .     S
C1113  C1114   1.406   .     A
C1114  C1115   1.383   .     A
C1114  H1142   1.086   .     S
C1115  H1143   1.085   .     S
C1116  C1117   1.406   .     A
C1116  C1121   1.407   .     A
C1117  C1118   1.383   .     A
C1117  H1144   1.086   .     S
C1118  C1119   1.397   .     A
C1118  H1145   1.085   .     S
C1119  C1120   1.397   .     A
C1119  C1224   1.472   .     S
C1120  C1121   1.384   .     A
C1120  H1146   1.085   .     S
C1121  H1147   1.087   .     S
C1122  C1123   1.383   .     A
C1122  C1127   1.407   .     A
C1122  H1148   1.087   .     S
C1123  C1124   1.398   .     A
C1123  H1149   1.085   .     S
C1124  C1125   1.397   .     A
C1125  C1126   1.384   .     A
C1125  H1150   1.085   .     S
C1126  C1127   1.406   .     A
C1126  H1151   1.086   .     S
H1133  C1099   1.085   1_455 S
C1152  C544    1.472   1_545 S
C1152  C1153   1.398   .     A
C1152  C1157   1.397   .     A
C1153  C1154   1.383   .     A
C1153  H1158   1.085   .     S
C1154  C1155   1.408   .     A
C1154  H1159   1.087   .     S
C1155  C1156   1.405   .     A
C1155  Si1168  1.898   .     S
C1156  C1157   1.385   .     A
C1156  H1160   1.086   .     S
C1157  H1161   1.085   .     S
C1162  C1163   1.405   .     A
C1162  C1167   1.384   .     A
C1162  H1200   1.086   .     S
C1163  C1164   1.408   .     A
C1163  Si1168  1.898   .     S
C1164  C1165   1.383   .     A
C1164  H1201   1.087   .     S
C1165  C1166   1.398   .     A
C1165  H1202   1.085   .     S
C1166  C1167   1.397   .     A
C1166  C1268   1.473   .     S
C1167  H1203   1.085   .     S
Si1168 C1169   1.901   .     S
Si1168 C1180   1.899   .     S
C1169  C1170   1.438   .     A
C1169  C1174   1.374   .     A
C1170  C1171   1.390   .     A
C1170  H1204   1.086   .     S
C1171  C1172   1.378   .     A
C1171  H1205   1.085   .     S
C1172  C104    1.525   1_655 S
C1172  C1173   1.495   .     S
C1173  C103    1.525   1_655 S
C1173  C1174   1.477   .     S
C1173  H1206   1.102   .     S
C1174  H1207   1.085   .     S
C1175  C1176   1.384   .     A
C1175  C1180   1.407   .     A
C1175  H1208   1.087   .     S
C1176  C1177   1.405   .     A
C1176  H1209   1.087   .     S
C1177  C1178   1.407   .     A
C1177  Si1181  1.898   .     S
C1178  C1179   1.384   .     A
C1178  H1210   1.087   .     S
C1179  C1180   1.405   .     A
C1179  H1211   1.087   .     S
Si1181 C1185   1.898   .     S
Si1181 C1188   1.898   .     S
Si1181 C1199   1.899   .     S
C1182  C1183   1.397   .     A
C1182  C1187   1.397   .     A
C1183  C1184   1.384   .     A
C1183  H1212   1.085   .     S
C1184  C1185   1.406   .     A
C1184  H1213   1.087   .     S
C1185  C1186   1.406   .     A
C1186  C1187   1.383   .     A
C1186  H1214   1.086   .     S
C1187  H1215   1.085   .     S
C1188  C1189   1.406   .     A
C1188  C1193   1.407   .     A
C1189  C1190   1.384   .     A
C1189  H1216   1.086   .     S
C1190  C1191   1.397   .     A
C1190  H1217   1.085   .     S
C1191  C1192   1.398   .     A
C1192  C1193   1.383   .     A
C1192  H1218   1.085   .     S
C1193  H1219   1.087   .     S
C1194  C1195   1.384   1_556 A
C1194  C1199   1.406   .     A
C1194  H1220   1.087   .     S
C1195  C1194   1.384   1_554 A
C1195  C1196   1.397   .     A
C1195  H1221   1.085   .     S
C1196  C1197   1.397   .     A
C1196  C1238   1.473   .     S
C1197  C1198   1.384   1_554 A
C1197  H1222   1.085   .     S
C1198  C1197   1.384   1_556 A
C1198  C1199   1.406   .     A
C1198  H1223   1.086   .     S
C1224  C1225   1.398   1_565 A
C1224  C1229   1.397   1_565 A
C1225  C1224   1.398   1_545 A
C1225  C1226   1.383   .     A
C1225  H1230   1.085   1_545 S
C1226  C1227   1.408   .     A
C1226  H1231   1.087   .     S
C1227  C1228   1.405   .     A
C1227  Si1240  1.899   .     S
C1228  C1229   1.385   .     A
C1228  H1232   1.086   .     S
C1229  C1224   1.397   1_545 A
C1229  H1233   1.085   .     S
H1230  C1225   1.085   1_565 S
C1234  C1235   1.405   .     A
C1234  C1239   1.384   .     A
C1234  H1272   1.086   .     S
C1235  C1236   1.408   .     A
C1235  Si1240  1.899   .     S
C1236  C1237   1.383   .     A
C1236  H1273   1.087   .     S
C1237  C1238   1.398   .     A
C1237  H1274   1.085   .     S
C1238  C1239   1.396   .     A
C1239  H1275   1.085   .     S
Si1240 C1241   1.903   .     S
Si1240 C1252   1.896   .     S
C1241  C1242   1.442   .     A
C1241  C1246   1.374   .     A
C1242  C1243   1.396   .     A
C1242  H1276   1.086   .     S
C1243  H708    1.085   1_655 S
C1243  C1244   1.372   1_655 A
C1244  C1243   1.372   1_455 A
C1244  C1245   1.518   1_455 S
C1245  C678    1.533   1_655 S
C1245  C1244   1.518   1_655 S
C1245  C1246   1.488   .     S
C1245  H1277   1.101   1_655 S
C1246  H1278   1.085   .     S
C1247  C1248   1.383   .     A
C1247  C1252   1.408   .     A
C1247  H1279   1.088   .     S
C1248  C1249   1.405   .     A
C1248  H1280   1.086   .     S
C1249  C1250   1.407   .     A
C1249  Si1253  1.900   .     S
C1250  C1251   1.385   .     A
C1250  H1281   1.087   .     S
C1251  C1252   1.404   .     A
C1251  H1282   1.086   .     S
Si1253 C1257   1.896   .     S
Si1253 C1260   1.898   .     S
Si1253 C1271   1.898   .     S
C1254  C1255   1.400   .     A
C1254  C1259   1.398   .     A
C1255  C1256   1.382   .     A
C1255  H1283   1.087   .     S
C1256  C1257   1.407   .     A
C1256  H1284   1.086   .     S
C1257  C1258   1.408   .     A
C1258  C1259   1.383   .     A
C1258  H1285   1.087   .     S
C1259  H1286   1.084   .     S
C1260  C1261   1.403   .     A
C1260  C1265   1.421   .     A
C1261  C1262   1.384   .     A
C1261  H1287   1.086   .     S
C1262  C1263   1.405   .     A
C1262  H1288   1.085   .     S
C1263  C1264   1.380   .     A
C1264  C1265   1.356   .     A
C1265  H1289   1.085   .     S
C1266  C1267   1.384   .     A
C1266  C1271   1.406   .     A
C1266  H1290   1.087   .     S
C1267  C1268   1.397   .     A
C1267  H1291   1.085   .     S
C1268  C1269   1.397   .     A
C1269  C1270   1.384   .     A
C1269  H1292   1.085   .     S
C1270  C1271   1.406   .     A
C1270  H1293   1.086   .     S
H1277  C1245   1.101   1_455 S
