
#======================================================================
# CRYSTAL DATA
#----------------------------------------------------------------------
data_VESTA_phase_1

_chemical_name_common                  'Converted by xsd2pos.py               '
_cell_length_a                         11.103840
_cell_length_b                         11.200238
_cell_length_c                         32.434643
_cell_angle_alpha                      90.000000
_cell_angle_beta                       90.000000
_cell_angle_gamma                      90.000000
_cell_volume                           4033.755493
_space_group_name_H-M_alt              'P 1'
_space_group_IT_number                 1

loop_
_space_group_symop_operation_xyz
   'x, y, z'

loop_
   _atom_site_label
   _atom_site_occupancy
   _atom_site_fract_x
   _atom_site_fract_y
   _atom_site_fract_z
   _atom_site_adp_type
   _atom_site_U_iso_or_equiv
   _atom_site_type_symbol
   Mn1        1.0     0.002051     0.996906     0.478929    Uiso  ? Mn
   Mn2        1.0     0.254999     0.246859     0.478916    Uiso  ? Mn
   Mn3        1.0     0.250000     0.250000     0.111913    Uiso  ? Mn
   Mn4        1.0     0.000000     0.000000     0.111913    Uiso  ? Mn
   Mn5        1.0     0.000000     0.000000     0.233518    Uiso  ? Mn
   Mn6        1.0     0.250000     0.250000     0.233518    Uiso  ? Mn
   Mn7        1.0     0.249726     0.250039     0.355901    Uiso  ? Mn
   Mn8        1.0     0.004499     0.000957     0.355810    Uiso  ? Mn
   Mn9        1.0     0.002050     0.496903     0.478928    Uiso  ? Mn
   Mn10       1.0     0.254997     0.746855     0.478915    Uiso  ? Mn
   Mn11       1.0     0.250000     0.750000     0.111913    Uiso  ? Mn
   Mn12       1.0     0.000000     0.500000     0.111913    Uiso  ? Mn
   Mn13       1.0     0.000000     0.500000     0.233518    Uiso  ? Mn
   Mn14       1.0     0.250000     0.750000     0.233518    Uiso  ? Mn
   Mn15       1.0     0.249727     0.750036     0.355902    Uiso  ? Mn
   Mn16       1.0     0.004497     0.500954     0.355808    Uiso  ? Mn
   Mn17       1.0     0.502215     0.996913     0.478632    Uiso  ? Mn
   Mn18       1.0     0.754791     0.246930     0.478629    Uiso  ? Mn
   Mn19       1.0     0.750000     0.250000     0.111913    Uiso  ? Mn
   Mn20       1.0     0.500000     0.000000     0.111913    Uiso  ? Mn
   Mn21       1.0     0.500000     0.000000     0.233518    Uiso  ? Mn
   Mn22       1.0     0.750000     0.250000     0.233518    Uiso  ? Mn
   Mn23       1.0     0.749875     0.250348     0.355782    Uiso  ? Mn
   Mn24       1.0     0.504389     0.001116     0.355683    Uiso  ? Mn
   Mn25       1.0     0.502215     0.496911     0.478631    Uiso  ? Mn
   Mn26       1.0     0.754792     0.746932     0.478630    Uiso  ? Mn
   Mn27       1.0     0.750000     0.750000     0.111913    Uiso  ? Mn
   Mn28       1.0     0.500000     0.500000     0.111913    Uiso  ? Mn
   Mn29       1.0     0.500000     0.500000     0.233518    Uiso  ? Mn
   Mn30       1.0     0.750000     0.750000     0.233518    Uiso  ? Mn
   Mn31       1.0     0.749875     0.750343     0.355782    Uiso  ? Mn
   Mn32       1.0     0.504391     0.501115     0.355681    Uiso  ? Mn
   O1         1.0     0.142234     0.107080     0.121605    Uiso  ? O
   O2         1.0     0.357767     0.392920     0.102221    Uiso  ? O
   O3         1.0     0.392233     0.142919     0.102221    Uiso  ? O
   O4         1.0     0.107767     0.357080     0.121605    Uiso  ? O
   O5         1.0     0.107767     0.357080     0.223827    Uiso  ? O
   O6         1.0     0.142234     0.107080     0.223827    Uiso  ? O
   O7         1.0     0.463096     0.007781     0.172716    Uiso  ? O
   O8         1.0     0.036904     0.492219     0.051111    Uiso  ? O
   O9         1.0     0.213096     0.242219     0.051111    Uiso  ? O
   O10        1.0     0.286904     0.257781     0.172716    Uiso  ? O
   O11        1.0     0.155419     0.104682     0.363185    Uiso  ? O
   O12        1.0     0.353386     0.389789     0.345461    Uiso  ? O
   O13        1.0     0.390219     0.147578     0.345158    Uiso  ? O
   O14        1.0     0.106932     0.346389     0.363082    Uiso  ? O
   O15        1.0     0.129415     0.373147     0.470372    Uiso  ? O
   O16        1.0     0.392233     0.142919     0.243210    Uiso  ? O
   O17        1.0     0.357767     0.392920     0.243210    Uiso  ? O
   O18        1.0     0.127609     0.123152     0.470407    Uiso  ? O
   O19        1.0     0.477658     0.004635     0.412837    Uiso  ? O
   O20        1.0     0.035304     0.492789     0.294860    Uiso  ? O
   O21        1.0     0.214679     0.242785     0.294861    Uiso  ? O
   O22        1.0     0.280344     0.254944     0.413278    Uiso  ? O
   O23        1.0     0.142234     0.607081     0.121605    Uiso  ? O
   O24        1.0     0.357767     0.892919     0.102221    Uiso  ? O
   O25        1.0     0.392233     0.642919     0.102221    Uiso  ? O
   O26        1.0     0.107767     0.857081     0.121605    Uiso  ? O
   O27        1.0     0.107767     0.857081     0.223827    Uiso  ? O
   O28        1.0     0.142234     0.607081     0.223827    Uiso  ? O
   O29        1.0     0.463096     0.507781     0.172716    Uiso  ? O
   O30        1.0     0.036904     0.992219     0.051111    Uiso  ? O
   O31        1.0     0.213096     0.742219     0.051111    Uiso  ? O
   O32        1.0     0.286904     0.757781     0.172716    Uiso  ? O
   O33        1.0     0.155419     0.604680     0.363183    Uiso  ? O
   O34        1.0     0.353388     0.889793     0.345465    Uiso  ? O
   O35        1.0     0.390222     0.647572     0.345155    Uiso  ? O
   O36        1.0     0.106935     0.846386     0.363085    Uiso  ? O
   O37        1.0     0.129408     0.873148     0.470372    Uiso  ? O
   O38        1.0     0.392233     0.642919     0.243210    Uiso  ? O
   O39        1.0     0.357767     0.892919     0.243210    Uiso  ? O
   O40        1.0     0.127609     0.623152     0.470404    Uiso  ? O
   O41        1.0     0.477660     0.504637     0.412836    Uiso  ? O
   O42        1.0     0.035304     0.992790     0.294864    Uiso  ? O
   O43        1.0     0.214678     0.742794     0.294863    Uiso  ? O
   O44        1.0     0.280346     0.754933     0.413278    Uiso  ? O
   O45        1.0     0.642233     0.107080     0.121605    Uiso  ? O
   O46        1.0     0.857767     0.392920     0.102221    Uiso  ? O
   O47        1.0     0.892233     0.142919     0.102221    Uiso  ? O
   O48        1.0     0.607767     0.357080     0.121605    Uiso  ? O
   O49        1.0     0.607767     0.357080     0.223827    Uiso  ? O
   O50        1.0     0.642233     0.107080     0.223827    Uiso  ? O
   O51        1.0     0.963096     0.007781     0.172716    Uiso  ? O
   O52        1.0     0.536904     0.492219     0.051111    Uiso  ? O
   O53        1.0     0.713096     0.242219     0.051111    Uiso  ? O
   O54        1.0     0.786904     0.257781     0.172716    Uiso  ? O
   O55        1.0     0.655216     0.105492     0.363038    Uiso  ? O
   O56        1.0     0.853747     0.390215     0.345406    Uiso  ? O
   O57        1.0     0.890132     0.147840     0.345179    Uiso  ? O
   O58        1.0     0.607137     0.347152     0.362874    Uiso  ? O
   O59        1.0     0.629465     0.373456     0.470001    Uiso  ? O
   O60        1.0     0.892233     0.142919     0.243210    Uiso  ? O
   O61        1.0     0.857767     0.392920     0.243210    Uiso  ? O
   O62        1.0     0.627498     0.123456     0.470008    Uiso  ? O
   O63        1.0     0.977376     0.004408     0.413121    Uiso  ? O
   O64        1.0     0.535322     0.492787     0.294862    Uiso  ? O
   O65        1.0     0.714697     0.242785     0.294862    Uiso  ? O
   O66        1.0     0.780101     0.255438     0.412980    Uiso  ? O
   O67        1.0     0.642233     0.607081     0.121605    Uiso  ? O
   O68        1.0     0.857767     0.892919     0.102221    Uiso  ? O
   O69        1.0     0.892233     0.642919     0.102221    Uiso  ? O
   O70        1.0     0.607767     0.857081     0.121605    Uiso  ? O
   O71        1.0     0.607767     0.857081     0.223827    Uiso  ? O
   O72        1.0     0.642233     0.607081     0.223827    Uiso  ? O
   O73        1.0     0.963096     0.507781     0.172716    Uiso  ? O
   O74        1.0     0.536904     0.992219     0.051111    Uiso  ? O
   O75        1.0     0.713096     0.742219     0.051111    Uiso  ? O
   O76        1.0     0.786904     0.757781     0.172716    Uiso  ? O
   O77        1.0     0.655220     0.605487     0.363037    Uiso  ? O
   O78        1.0     0.853753     0.890217     0.345411    Uiso  ? O
   O79        1.0     0.890132     0.647833     0.345175    Uiso  ? O
   O80        1.0     0.607142     0.847151     0.362876    Uiso  ? O
   O81        1.0     0.629469     0.873459     0.470003    Uiso  ? O
   O82        1.0     0.892233     0.642919     0.243210    Uiso  ? O
   O83        1.0     0.857767     0.892919     0.243210    Uiso  ? O
   O84        1.0     0.627496     0.623458     0.470007    Uiso  ? O
   O85        1.0     0.977375     0.504400     0.413119    Uiso  ? O
   O86        1.0     0.535320     0.992787     0.294865    Uiso  ? O
   O87        1.0     0.714696     0.742792     0.294864    Uiso  ? O
   O88        1.0     0.780103     0.755429     0.412981    Uiso  ? O
   O89        1.0     0.873500     0.120139     0.476717    Uiso  ? O
   O90        1.0     0.880059     0.868535     0.476882    Uiso  ? O
   O91        1.0     0.376850     0.118377     0.476830    Uiso  ? O
   O92        1.0     0.383447     0.370145     0.476757    Uiso  ? O
   O93        1.0     0.873501     0.620142     0.476717    Uiso  ? O
   O94        1.0     0.880060     0.368529     0.476880    Uiso  ? O
   O95        1.0     0.376852     0.618375     0.476830    Uiso  ? O
   O96        1.0     0.383446     0.870149     0.476755    Uiso  ? O
   La1        1.0     0.253773     0.018327     0.051111    Uiso  ? La
   La2        1.0     0.246227     0.481673     0.172716    Uiso  ? La
   La3        1.0     0.003773     0.231673     0.172716    Uiso  ? La
   La4        1.0     0.496227     0.268327     0.051111    Uiso  ? La
   La5        1.0     0.253056     0.018298     0.297399    Uiso  ? La
   La6        1.0     0.256016     0.495263     0.423607    Uiso  ? La
   La7        1.0     0.001418     0.245410     0.423729    Uiso  ? La
   La8        1.0     0.496941     0.268294     0.297400    Uiso  ? La
   La9        1.0     0.253773     0.518327     0.051111    Uiso  ? La
   La10       1.0     0.246227     0.981673     0.172716    Uiso  ? La
   La11       1.0     0.003773     0.731673     0.172716    Uiso  ? La
   La12       1.0     0.496227     0.768327     0.051111    Uiso  ? La
   La13       1.0     0.253057     0.518301     0.297396    Uiso  ? La
   La14       1.0     0.256015     0.995263     0.423610    Uiso  ? La
   La15       1.0     0.001418     0.745411     0.423730    Uiso  ? La
   La16       1.0     0.496941     0.768302     0.297400    Uiso  ? La
   La17       1.0     0.753773     0.018327     0.051111    Uiso  ? La
   La18       1.0     0.746227     0.481673     0.172716    Uiso  ? La
   La19       1.0     0.503773     0.231673     0.172716    Uiso  ? La
   La20       1.0     0.996227     0.268327     0.051111    Uiso  ? La
   La21       1.0     0.753072     0.018302     0.297403    Uiso  ? La
   La22       1.0     0.755622     0.495377     0.423406    Uiso  ? La
   La23       1.0     0.501781     0.245438     0.423481    Uiso  ? La
   La24       1.0     0.996931     0.268297     0.297398    Uiso  ? La
   La25       1.0     0.753773     0.518327     0.051111    Uiso  ? La
   La26       1.0     0.746227     0.981673     0.172716    Uiso  ? La
   La27       1.0     0.503773     0.731673     0.172716    Uiso  ? La
   La28       1.0     0.996227     0.768327     0.051111    Uiso  ? La
   La29       1.0     0.753074     0.518304     0.297399    Uiso  ? La
   La30       1.0     0.755623     0.995376     0.423407    Uiso  ? La
   La31       1.0     0.501782     0.745443     0.423482    Uiso  ? La
   La32       1.0     0.996931     0.768305     0.297399    Uiso  ? La
