
#======================================================================
# CRYSTAL DATA
#----------------------------------------------------------------------
data_VESTA_phase_1

_chemical_name_common                  'Converted by xsd2pos.py               '
_cell_length_a                         11.103840
_cell_length_b                         11.200238
_cell_length_c                         32.434643
_cell_angle_alpha                      90.000000
_cell_angle_beta                       90.000000
_cell_angle_gamma                      90.000000
_cell_volume                           4033.755493
_space_group_name_H-M_alt              'P 1'
_space_group_IT_number                 1

loop_
_space_group_symop_operation_xyz
   'x, y, z'

loop_
   _atom_site_label
   _atom_site_occupancy
   _atom_site_fract_x
   _atom_site_fract_y
   _atom_site_fract_z
   _atom_site_adp_type
   _atom_site_U_iso_or_equiv
   _atom_site_type_symbol
   Mn1        1.0     0.001825     0.997407     0.477653    Uiso  ? Mn
   Mn2        1.0     0.254830     0.246826     0.477770    Uiso  ? Mn
   Mn3        1.0     0.250000     0.250000     0.111913    Uiso  ? Mn
   Mn4        1.0     0.000000     0.000000     0.111913    Uiso  ? Mn
   Mn5        1.0     0.000000     0.000000     0.233518    Uiso  ? Mn
   Mn6        1.0     0.250000     0.250000     0.233518    Uiso  ? Mn
   Mn7        1.0     0.250883     0.250905     0.355506    Uiso  ? Mn
   Mn8        1.0     0.004543     0.001784     0.355083    Uiso  ? Mn
   Mn9        1.0     0.002171     0.497649     0.477048    Uiso  ? Mn
   Mn10       1.0     0.252590     0.749782     0.477140    Uiso  ? Mn
   Mn11       1.0     0.250000     0.750000     0.111913    Uiso  ? Mn
   Mn12       1.0     0.000000     0.500000     0.111913    Uiso  ? Mn
   Mn13       1.0     0.000000     0.500000     0.233518    Uiso  ? Mn
   Mn14       1.0     0.250000     0.750000     0.233518    Uiso  ? Mn
   Mn15       1.0     0.249337     0.752926     0.355172    Uiso  ? Mn
   Mn16       1.0     0.004543     0.501731     0.355274    Uiso  ? Mn
   Mn17       1.0     0.502272     0.997145     0.477373    Uiso  ? Mn
   Mn18       1.0     0.757000     0.245461     0.476995    Uiso  ? Mn
   Mn19       1.0     0.750000     0.250000     0.111913    Uiso  ? Mn
   Mn20       1.0     0.500000     0.000000     0.111913    Uiso  ? Mn
   Mn21       1.0     0.500000     0.000000     0.233518    Uiso  ? Mn
   Mn22       1.0     0.750000     0.250000     0.233518    Uiso  ? Mn
   Mn23       1.0     0.751044     0.248129     0.355422    Uiso  ? Mn
   Mn24       1.0     0.504233     0.001379     0.355279    Uiso  ? Mn
   Mn25       1.0     0.504326     0.497296     0.481016    Uiso  ? Mn
   Mn26       1.0     0.754755     0.747155     0.477064    Uiso  ? Mn
   Mn27       1.0     0.750000     0.750000     0.111913    Uiso  ? Mn
   Mn28       1.0     0.500000     0.500000     0.111913    Uiso  ? Mn
   Mn29       1.0     0.500000     0.500000     0.233518    Uiso  ? Mn
   Mn30       1.0     0.750000     0.750000     0.233518    Uiso  ? Mn
   Mn31       1.0     0.748956     0.750699     0.355221    Uiso  ? Mn
   Mn32       1.0     0.505972     0.500578     0.356554    Uiso  ? Mn
   O1         1.0     0.142234     0.107080     0.121605    Uiso  ? O
   O2         1.0     0.357767     0.392920     0.102221    Uiso  ? O
   O3         1.0     0.392233     0.142919     0.102221    Uiso  ? O
   O4         1.0     0.107767     0.357080     0.121605    Uiso  ? O
   O5         1.0     0.107767     0.357080     0.223827    Uiso  ? O
   O6         1.0     0.142234     0.107080     0.223827    Uiso  ? O
   O7         1.0     0.463096     0.007781     0.172716    Uiso  ? O
   O8         1.0     0.036904     0.492219     0.051111    Uiso  ? O
   O9         1.0     0.213096     0.242219     0.051111    Uiso  ? O
   O10        1.0     0.286904     0.257781     0.172716    Uiso  ? O
   O11        1.0     0.154937     0.108465     0.361932    Uiso  ? O
   O12        1.0     0.358747     0.393201     0.345712    Uiso  ? O
   O13        1.0     0.390459     0.148126     0.344594    Uiso  ? O
   O14        1.0     0.109542     0.349443     0.361738    Uiso  ? O
   O15        1.0     0.129750     0.374413     0.468845    Uiso  ? O
   O16        1.0     0.392233     0.142919     0.243210    Uiso  ? O
   O17        1.0     0.357767     0.392920     0.243210    Uiso  ? O
   O18        1.0     0.127629     0.123820     0.469089    Uiso  ? O
   O19        1.0     0.477334     0.004472     0.411865    Uiso  ? O
   O20        1.0     0.035304     0.492789     0.294860    Uiso  ? O
   O21        1.0     0.214679     0.242785     0.294861    Uiso  ? O
   O22        1.0     0.278525     0.253941     0.412191    Uiso  ? O
   O23        1.0     0.142234     0.607081     0.121605    Uiso  ? O
   O24        1.0     0.357767     0.892919     0.102221    Uiso  ? O
   O25        1.0     0.392233     0.642919     0.102221    Uiso  ? O
   O26        1.0     0.107767     0.857081     0.121605    Uiso  ? O
   O27        1.0     0.107767     0.857081     0.223827    Uiso  ? O
   O28        1.0     0.142234     0.607081     0.223827    Uiso  ? O
   O29        1.0     0.463096     0.507781     0.172716    Uiso  ? O
   O30        1.0     0.036904     0.992219     0.051111    Uiso  ? O
   O31        1.0     0.213096     0.742219     0.051111    Uiso  ? O
   O32        1.0     0.286904     0.757781     0.172716    Uiso  ? O
   O33        1.0     0.153975     0.608482     0.362202    Uiso  ? O
   O34        1.0     0.353721     0.891432     0.344435    Uiso  ? O
   O35        1.0     0.388452     0.650823     0.346019    Uiso  ? O
   O36        1.0     0.104628     0.850126     0.360913    Uiso  ? O
   O37        1.0     0.127406     0.875728     0.468987    Uiso  ? O
   O38        1.0     0.392233     0.642919     0.243210    Uiso  ? O
   O39        1.0     0.357767     0.892919     0.243210    Uiso  ? O
   O40        1.0     0.125740     0.624920     0.468474    Uiso  ? O
   O41        1.0     0.481649     0.500359     0.415108    Uiso  ? O
   O42        1.0     0.035304     0.992790     0.294864    Uiso  ? O
   O43        1.0     0.214678     0.742794     0.294863    Uiso  ? O
   O44        1.0     0.274804     0.764913     0.411515    Uiso  ? O
   O45        1.0     0.642233     0.107080     0.121605    Uiso  ? O
   O46        1.0     0.857767     0.392920     0.102221    Uiso  ? O
   O47        1.0     0.892233     0.142919     0.102221    Uiso  ? O
   O48        1.0     0.607767     0.357080     0.121605    Uiso  ? O
   O49        1.0     0.607767     0.357080     0.223827    Uiso  ? O
   O50        1.0     0.642233     0.107080     0.223827    Uiso  ? O
   O51        1.0     0.963096     0.007781     0.172716    Uiso  ? O
   O52        1.0     0.536904     0.492219     0.051111    Uiso  ? O
   O53        1.0     0.713096     0.242219     0.051111    Uiso  ? O
   O54        1.0     0.786904     0.257781     0.172716    Uiso  ? O
   O55        1.0     0.655785     0.103595     0.361758    Uiso  ? O
   O56        1.0     0.855872     0.387643     0.344788    Uiso  ? O
   O57        1.0     0.891853     0.143548     0.343859    Uiso  ? O
   O58        1.0     0.611175     0.345157     0.362651    Uiso  ? O
   O59        1.0     0.637049     0.365338     0.466942    Uiso  ? O
   O60        1.0     0.892233     0.142919     0.243210    Uiso  ? O
   O61        1.0     0.857767     0.392920     0.243210    Uiso  ? O
   O62        1.0     0.628120     0.120927     0.468617    Uiso  ? O
   O63        1.0     0.978967     0.005649     0.411774    Uiso  ? O
   O64        1.0     0.535322     0.492787     0.294862    Uiso  ? O
   O65        1.0     0.714697     0.242785     0.294862    Uiso  ? O
   O66        1.0     0.784702     0.246735     0.411701    Uiso  ? O
   O67        1.0     0.642233     0.607081     0.121605    Uiso  ? O
   O68        1.0     0.857767     0.892919     0.102221    Uiso  ? O
   O69        1.0     0.892233     0.642919     0.102221    Uiso  ? O
   O70        1.0     0.607767     0.857081     0.121605    Uiso  ? O
   O71        1.0     0.607767     0.857081     0.223827    Uiso  ? O
   O72        1.0     0.642233     0.607081     0.223827    Uiso  ? O
   O73        1.0     0.963096     0.507781     0.172716    Uiso  ? O
   O74        1.0     0.536904     0.992219     0.051111    Uiso  ? O
   O75        1.0     0.713096     0.742219     0.051111    Uiso  ? O
   O76        1.0     0.786904     0.757781     0.172716    Uiso  ? O
   O77        1.0     0.653263     0.602835     0.362309    Uiso  ? O
   O78        1.0     0.851517     0.887514     0.344747    Uiso  ? O
   O79        1.0     0.888352     0.646468     0.344411    Uiso  ? O
   O80        1.0     0.606387     0.846313     0.361707    Uiso  ? O
   O81        1.0     0.628637     0.874082     0.468358    Uiso  ? O
   O82        1.0     0.892233     0.642919     0.243210    Uiso  ? O
   O83        1.0     0.857767     0.892919     0.243210    Uiso  ? O
   O84        1.0     0.632214     0.627450     0.467509    Uiso  ? O
   O85        1.0     0.978421     0.504766     0.411730    Uiso  ? O
   O86        1.0     0.535320     0.992787     0.294865    Uiso  ? O
   O87        1.0     0.714696     0.742792     0.294864    Uiso  ? O
   O88        1.0     0.780514     0.756659     0.411614    Uiso  ? O
   O89        1.0     0.877730     0.117882     0.476237    Uiso  ? O
   O90        1.0     0.882030     0.870622     0.474973    Uiso  ? O
   O91        1.0     0.375352     0.119492     0.475538    Uiso  ? O
   O92        1.0     0.377522     0.366065     0.475144    Uiso  ? O
   O93        1.0     0.876842     0.619906     0.474616    Uiso  ? O
   O94        1.0     0.884859     0.369184     0.474309    Uiso  ? O
   O95        1.0     0.367589     0.628197     0.471022    Uiso  ? O
   O96        1.0     0.380159     0.872421     0.475449    Uiso  ? O
   O97        1.0     0.516006     0.497889     0.537628    Uiso  ? O
   La1        1.0     0.253773     0.018327     0.051111    Uiso  ? La
   La2        1.0     0.246227     0.481673     0.172716    Uiso  ? La
   La3        1.0     0.003773     0.231673     0.172716    Uiso  ? La
   La4        1.0     0.496227     0.268327     0.051111    Uiso  ? La
   La5        1.0     0.253056     0.018298     0.297399    Uiso  ? La
   La6        1.0     0.257213     0.496395     0.423295    Uiso  ? La
   La7        1.0     0.004385     0.245766     0.422443    Uiso  ? La
   La8        1.0     0.496941     0.268294     0.297400    Uiso  ? La
   La9        1.0     0.253773     0.518327     0.051111    Uiso  ? La
   La10       1.0     0.246227     0.981673     0.172716    Uiso  ? La
   La11       1.0     0.003773     0.731673     0.172716    Uiso  ? La
   La12       1.0     0.496227     0.768327     0.051111    Uiso  ? La
   La13       1.0     0.253057     0.518301     0.297396    Uiso  ? La
   La14       1.0     0.255333     0.997374     0.422694    Uiso  ? La
   La15       1.0     0.001971     0.746782     0.422361    Uiso  ? La
   La16       1.0     0.496941     0.768302     0.297400    Uiso  ? La
   La17       1.0     0.753773     0.018327     0.051111    Uiso  ? La
   La18       1.0     0.746227     0.481673     0.172716    Uiso  ? La
   La19       1.0     0.503773     0.231673     0.172716    Uiso  ? La
   La20       1.0     0.996227     0.268327     0.051111    Uiso  ? La
   La21       1.0     0.753072     0.018302     0.297403    Uiso  ? La
   La22       1.0     0.755091     0.494733     0.423018    Uiso  ? La
   La23       1.0     0.502073     0.246956     0.423514    Uiso  ? La
   La24       1.0     0.996931     0.268297     0.297398    Uiso  ? La
   La25       1.0     0.753773     0.518327     0.051111    Uiso  ? La
   La26       1.0     0.746227     0.981673     0.172716    Uiso  ? La
   La27       1.0     0.503773     0.731673     0.172716    Uiso  ? La
   La28       1.0     0.996227     0.768327     0.051111    Uiso  ? La
   La29       1.0     0.753074     0.518304     0.297399    Uiso  ? La
   La30       1.0     0.756616     0.996094     0.422537    Uiso  ? La
   La31       1.0     0.499439     0.746083     0.423302    Uiso  ? La
   La32       1.0     0.996931     0.768305     0.297399    Uiso  ? La
   H1         1.0     0.464288     0.434214     0.548031    Uiso  ? H
